/*---------------------------------------------------------------------------*\
| =========                 |                                                 |
| \\      /  F ield         | OpenFOAM: The Open Source CFD Toolbox           |
|  \\    /   O peration     | Version:  v1906                                 |
|   \\  /    A nd           | Web:      www.OpenFOAM.com                      |
|    \\/     M anipulation  |                                                 |
\*---------------------------------------------------------------------------*/
Build  : 144f149615-20190918 OPENFOAM=1906 patch=190828
Arch   : "LSB;label=32;scalar=64"
Exec   : mhdFoam
Date   : Oct 26 2019
Time   : 20:53:43
Host   : DESKTOP-8KJCPKM
PID    : 21794
I/O    : uncollated
Case   : /home/tn/mhdfaom
nProcs : 1
trapFpe: Floating point exception trapping enabled (FOAM_SIGFPE).
fileModificationChecking : Monitoring run-time modified files using timeStampMaster (fileModificationSkew 10)
allowSystemOperations : Allowing user-supplied system call operations

// * * * * * * * * * * * * * * * * * * * * * * * * * * * * * * * * * * * * * //
Create time

Create mesh for time = 0


PISO: Operating solver in PISO mode


BPISO: Operating solver in PISO mode

Reading transportProperties

Reading field p

Reading field U

Reading/calculating face flux field phi

Reading field pB

Reading field B

Calculating face flux phiB


Starting time loop
Time = 0.005

Courant Number mean: 6.25e-05 max: 0.00625
smoothSolver:  Solving for Ux, Initial residual = 1, Final residual = 6.1172e-06, No Iterations 14
smoothSolver:  Solving for Uy, Initial residual = 0, Final residual = 0, No Iterations 0
DICPCG:  Solving for p, Initial residual = 1, Final residual = 0.0164317, No Iterations 91
time step continuity errors : sum local = 2.05396e-06, global = -1.11879e-08, cumulative = -1.11879e-08
DICPCG:  Solving for p, Initial residual = 0.0039733, Final residual = 0.000154676, No Iterations 90
time step continuity errors : sum local = 3.92109e-06, global = 6.50379e-08, cumulative = 5.385e-08
DICPCG:  Solving for p, Initial residual = 0.0042785, Final residual = 7.92121e-07, No Iterations 97
time step continuity errors : sum local = 4.44849e-09, global = -5.34745e-12, cumulative = 5.38446e-08
smoothSolver:  Solving for Bx, Initial residual = 1, Final residual = 9.81881e-06, No Iterations 12
smoothSolver:  Solving for By, Initial residual = 1, Final residual = 5.03341e-06, No Iterations 14
DICPCG:  Solving for pB, Initial residual = 1, Final residual = 9.92499e-06, No Iterations 53
magnetic flux divergence error = 3.59896e-11
smoothSolver:  Solving for Bx, Initial residual = 1.52977e-05, Final residual = 4.73915e-06, No Iterations 1
smoothSolver:  Solving for By, Initial residual = 0.000859029, Final residual = 6.73644e-06, No Iterations 5
DICPCG:  Solving for pB, Initial residual = 0.00197774, Final residual = 9.2176e-06, No Iterations 18
magnetic flux divergence error = 6.69081e-11
smoothSolver:  Solving for Bx, Initial residual = 4.73634e-06, Final residual = 4.73634e-06, No Iterations 0
smoothSolver:  Solving for By, Initial residual = 6.68928e-06, Final residual = 6.68928e-06, No Iterations 0
DICPCG:  Solving for pB, Initial residual = 9.20948e-06, Final residual = 9.20948e-06, No Iterations 0
magnetic flux divergence error = 6.69081e-11
Time = 0.01

Courant Number mean: 0.0125527 max: 0.0204683
smoothSolver:  Solving for Ux, Initial residual = 0.698164, Final residual = 7.62141e-06, No Iterations 14
smoothSolver:  Solving for Uy, Initial residual = 0.571842, Final residual = 7.44873e-06, No Iterations 13
DICPCG:  Solving for p, Initial residual = 0.0267384, Final residual = 0.00121483, No Iterations 90
time step continuity errors : sum local = 6.6916e-06, global = 1.26119e-07, cumulative = 1.79963e-07
DICPCG:  Solving for p, Initial residual = 0.00575983, Final residual = 0.000209645, No Iterations 90
time step continuity errors : sum local = 3.94384e-06, global = -6.1983e-08, cumulative = 1.1798e-07
DICPCG:  Solving for p, Initial residual = 0.164691, Final residual = 7.98015e-07, No Iterations 102
time step continuity errors : sum local = 1.25183e-10, global = 3.44891e-13, cumulative = 1.17981e-07
smoothSolver:  Solving for Bx, Initial residual = 0.296069, Final residual = 8.96785e-06, No Iterations 12
smoothSolver:  Solving for By, Initial residual = 0.507651, Final residual = 5.75573e-06, No Iterations 13
DICPCG:  Solving for pB, Initial residual = 0.476893, Final residual = 9.72016e-06, No Iterations 34
magnetic flux divergence error = 1.29815e-10
smoothSolver:  Solving for Bx, Initial residual = 1.34259e-05, Final residual = 5.04405e-06, No Iterations 1
smoothSolver:  Solving for By, Initial residual = 0.000855389, Final residual = 9.22023e-06, No Iterations 5
DICPCG:  Solving for pB, Initial residual = 0.00171424, Final residual = 7.98329e-06, No Iterations 7
magnetic flux divergence error = 1.55282e-10
smoothSolver:  Solving for Bx, Initial residual = 5.03613e-06, Final residual = 5.03613e-06, No Iterations 0
smoothSolver:  Solving for By, Initial residual = 9.14304e-06, Final residual = 9.14304e-06, No Iterations 0
DICPCG:  Solving for pB, Initial residual = 7.98104e-06, Final residual = 7.98104e-06, No Iterations 0
magnetic flux divergence error = 1.55282e-10
Time = 0.015

Courant Number mean: 0.0126322 max: 0.0303093
smoothSolver:  Solving for Ux, Initial residual = 0.094843, Final residual = 5.62782e-06, No Iterations 11
smoothSolver:  Solving for Uy, Initial residual = 0.285144, Final residual = 8.31036e-06, No Iterations 12
DICPCG:  Solving for p, Initial residual = 0.119005, Final residual = 0.00368517, No Iterations 89
time step continuity errors : sum local = 1.13287e-06, global = -4.4938e-08, cumulative = 7.30427e-08
DICPCG:  Solving for p, Initial residual = 0.0346305, Final residual = 0.00141566, No Iterations 89
time step continuity errors : sum local = 7.1156e-07, global = 2.50945e-08, cumulative = 9.81371e-08
DICPCG:  Solving for p, Initial residual = 0.012024, Final residual = 4.11031e-07, No Iterations 98
time step continuity errors : sum local = 1.41358e-10, global = -3.98747e-13, cumulative = 9.81367e-08
smoothSolver:  Solving for Bx, Initial residual = 0.165925, Final residual = 7.3584e-06, No Iterations 12
smoothSolver:  Solving for By, Initial residual = 0.246227, Final residual = 7.70949e-06, No Iterations 12
DICPCG:  Solving for pB, Initial residual = 0.251033, Final residual = 8.10751e-06, No Iterations 27
magnetic flux divergence error = 1.99457e-10
smoothSolver:  Solving for Bx, Initial residual = 9.78912e-06, Final residual = 9.78912e-06, No Iterations 0
smoothSolver:  Solving for By, Initial residual = 0.000568582, Final residual = 6.98895e-06, No Iterations 5
DICPCG:  Solving for pB, Initial residual = 0.000989963, Final residual = 9.05771e-06, No Iterations 5
magnetic flux divergence error = 2.69406e-10
smoothSolver:  Solving for Bx, Initial residual = 9.78667e-06, Final residual = 9.78667e-06, No Iterations 0
smoothSolver:  Solving for By, Initial residual = 6.96425e-06, Final residual = 6.96425e-06, No Iterations 0
DICPCG:  Solving for pB, Initial residual = 9.05875e-06, Final residual = 9.05875e-06, No Iterations 0
magnetic flux divergence error = 2.69406e-10
Time = 0.02

Courant Number mean: 0.0126627 max: 0.0330726
smoothSolver:  Solving for Ux, Initial residual = 0.0769988, Final residual = 4.59063e-06, No Iterations 11
smoothSolver:  Solving for Uy, Initial residual = 0.181032, Final residual = 4.38701e-06, No Iterations 12
DICPCG:  Solving for p, Initial residual = 0.0614401, Final residual = 0.00258, No Iterations 88
time step continuity errors : sum local = 9.00853e-07, global = -2.63439e-08, cumulative = 7.17928e-08
DICPCG:  Solving for p, Initial residual = 0.028127, Final residual = 0.000929898, No Iterations 88
time step continuity errors : sum local = 4.23218e-07, global = 8.31856e-09, cumulative = 8.01114e-08
DICPCG:  Solving for p, Initial residual = 0.00474596, Final residual = 6.40668e-07, No Iterations 96
time step continuity errors : sum local = 2.34653e-10, global = -2.18356e-12, cumulative = 8.01092e-08
smoothSolver:  Solving for Bx, Initial residual = 0.127561, Final residual = 6.03906e-06, No Iterations 12
smoothSolver:  Solving for By, Initial residual = 0.155624, Final residual = 5.56546e-06, No Iterations 12
DICPCG:  Solving for pB, Initial residual = 0.17249, Final residual = 9.36158e-06, No Iterations 18
magnetic flux divergence error = 3.17945e-10
smoothSolver:  Solving for Bx, Initial residual = 7.55817e-06, Final residual = 7.55817e-06, No Iterations 0
smoothSolver:  Solving for By, Initial residual = 0.000426699, Final residual = 5.58438e-06, No Iterations 5
DICPCG:  Solving for pB, Initial residual = 0.000706379, Final residual = 9.29187e-06, No Iterations 5
magnetic flux divergence error = 3.5476e-10
smoothSolver:  Solving for Bx, Initial residual = 7.55657e-06, Final residual = 7.55657e-06, No Iterations 0
smoothSolver:  Solving for By, Initial residual = 5.54678e-06, Final residual = 5.54678e-06, No Iterations 0
DICPCG:  Solving for pB, Initial residual = 9.29338e-06, Final residual = 9.29338e-06, No Iterations 0
magnetic flux divergence error = 3.5476e-10
Time = 0.025

Courant Number mean: 0.0126841 max: 0.0348626
smoothSolver:  Solving for Ux, Initial residual = 0.058002, Final residual = 7.42004e-06, No Iterations 10
smoothSolver:  Solving for Uy, Initial residual = 0.137368, Final residual = 7.21321e-06, No Iterations 11
DICPCG:  Solving for p, Initial residual = 0.0452307, Final residual = 0.00184768, No Iterations 88
time step continuity errors : sum local = 6.871e-07, global = -2.11682e-08, cumulative = 5.8941e-08
DICPCG:  Solving for p, Initial residual = 0.0237495, Final residual = 0.000961511, No Iterations 88
time step continuity errors : sum local = 4.52159e-07, global = 1.1783e-08, cumulative = 7.07239e-08
DICPCG:  Solving for p, Initial residual = 0.00311861, Final residual = 5.07129e-07, No Iterations 96
time step continuity errors : sum local = 1.96745e-10, global = -2.67479e-13, cumulative = 7.07237e-08
smoothSolver:  Solving for Bx, Initial residual = 0.102571, Final residual = 4.8967e-06, No Iterations 12
smoothSolver:  Solving for By, Initial residual = 0.108655, Final residual = 9.6552e-06, No Iterations 11
DICPCG:  Solving for pB, Initial residual = 0.132397, Final residual = 9.64383e-06, No Iterations 17
magnetic flux divergence error = 4.1356e-10
smoothSolver:  Solving for Bx, Initial residual = 5.9709e-06, Final residual = 5.9709e-06, No Iterations 0
smoothSolver:  Solving for By, Initial residual = 0.000328738, Final residual = 4.43779e-06, No Iterations 5
DICPCG:  Solving for pB, Initial residual = 0.000499534, Final residual = 8.71239e-06, No Iterations 5
magnetic flux divergence error = 4.14589e-10
smoothSolver:  Solving for Bx, Initial residual = 5.97204e-06, Final residual = 5.97204e-06, No Iterations 0
smoothSolver:  Solving for By, Initial residual = 4.38918e-06, Final residual = 4.38918e-06, No Iterations 0
DICPCG:  Solving for pB, Initial residual = 8.71371e-06, Final residual = 8.71371e-06, No Iterations 0
magnetic flux divergence error = 4.14589e-10
Time = 0.03

Courant Number mean: 0.0126946 max: 0.0354853
smoothSolver:  Solving for Ux, Initial residual = 0.0449605, Final residual = 9.80037e-06, No Iterations 9
smoothSolver:  Solving for Uy, Initial residual = 0.110048, Final residual = 4.90975e-06, No Iterations 11
DICPCG:  Solving for p, Initial residual = 0.0347001, Final residual = 0.00160387, No Iterations 88
time step continuity errors : sum local = 6.2947e-07, global = -1.90652e-08, cumulative = 5.16585e-08
DICPCG:  Solving for p, Initial residual = 0.020153, Final residual = 0.000920586, No Iterations 88
time step continuity errors : sum local = 4.47039e-07, global = 1.16397e-08, cumulative = 6.32982e-08
DICPCG:  Solving for p, Initial residual = 0.00271015, Final residual = 6.67429e-07, No Iterations 95
time step continuity errors : sum local = 2.72669e-10, global = 2.72077e-12, cumulative = 6.33009e-08
smoothSolver:  Solving for Bx, Initial residual = 0.0834544, Final residual = 8.85793e-06, No Iterations 11
smoothSolver:  Solving for By, Initial residual = 0.0784792, Final residual = 7.31454e-06, No Iterations 11
DICPCG:  Solving for pB, Initial residual = 0.102794, Final residual = 8.73206e-06, No Iterations 12
magnetic flux divergence error = 4.55461e-10
smoothSolver:  Solving for Bx, Initial residual = 9.04558e-06, Final residual = 9.04558e-06, No Iterations 0
smoothSolver:  Solving for By, Initial residual = 0.000251859, Final residual = 8.09418e-06, No Iterations 4
DICPCG:  Solving for pB, Initial residual = 0.000356514, Final residual = 7.34982e-06, No Iterations 5
magnetic flux divergence error = 4.16982e-10
smoothSolver:  Solving for Bx, Initial residual = 9.04574e-06, Final residual = 9.04574e-06, No Iterations 0
smoothSolver:  Solving for By, Initial residual = 8.04305e-06, Final residual = 8.04305e-06, No Iterations 0
DICPCG:  Solving for pB, Initial residual = 7.35072e-06, Final residual = 7.35072e-06, No Iterations 0
magnetic flux divergence error = 4.16982e-10
Time = 0.035

Courant Number mean: 0.012694 max: 0.0350367
smoothSolver:  Solving for Ux, Initial residual = 0.0393085, Final residual = 5.04402e-06, No Iterations 10
smoothSolver:  Solving for Uy, Initial residual = 0.0953361, Final residual = 9.61033e-06, No Iterations 10
DICPCG:  Solving for p, Initial residual = 0.0285348, Final residual = 0.00136732, No Iterations 88
time step continuity errors : sum local = 5.64885e-07, global = -1.67867e-08, cumulative = 4.65141e-08
DICPCG:  Solving for p, Initial residual = 0.0167594, Final residual = 0.00033701, No Iterations 89
time step continuity errors : sum local = 1.70531e-07, global = 2.65202e-09, cumulative = 4.91662e-08
DICPCG:  Solving for p, Initial residual = 0.0015921, Final residual = 9.66885e-07, No Iterations 94
time step continuity errors : sum local = 4.15814e-10, global = 2.97835e-12, cumulative = 4.91691e-08
smoothSolver:  Solving for Bx, Initial residual = 0.0666119, Final residual = 6.76467e-06, No Iterations 11
smoothSolver:  Solving for By, Initial residual = 0.0554072, Final residual = 5.43431e-06, No Iterations 11
DICPCG:  Solving for pB, Initial residual = 0.0787754, Final residual = 9.33922e-06, No Iterations 11
magnetic flux divergence error = 5.66809e-10
smoothSolver:  Solving for Bx, Initial residual = 6.96723e-06, Final residual = 6.96723e-06, No Iterations 0
smoothSolver:  Solving for By, Initial residual = 0.00018302, Final residual = 5.91503e-06, No Iterations 4
DICPCG:  Solving for pB, Initial residual = 0.000253767, Final residual = 6.02954e-06, No Iterations 5
magnetic flux divergence error = 3.89809e-10
smoothSolver:  Solving for Bx, Initial residual = 6.96713e-06, Final residual = 6.96713e-06, No Iterations 0
smoothSolver:  Solving for By, Initial residual = 5.86759e-06, Final residual = 5.86759e-06, No Iterations 0
DICPCG:  Solving for pB, Initial residual = 6.03013e-06, Final residual = 6.03013e-06, No Iterations 0
magnetic flux divergence error = 3.89809e-10
Time = 0.04

Courant Number mean: 0.012683 max: 0.0335307
smoothSolver:  Solving for Ux, Initial residual = 0.0520401, Final residual = 8.3886e-06, No Iterations 10
smoothSolver:  Solving for Uy, Initial residual = 0.0967366, Final residual = 4.85072e-06, No Iterations 11
DICPCG:  Solving for p, Initial residual = 0.0247787, Final residual = 0.000522168, No Iterations 89
time step continuity errors : sum local = 2.27159e-07, global = -4.7452e-09, cumulative = 4.44239e-08
DICPCG:  Solving for p, Initial residual = 0.0138936, Final residual = 0.000280118, No Iterations 89
time step continuity errors : sum local = 1.486e-07, global = 2.81238e-09, cumulative = 4.72363e-08
DICPCG:  Solving for p, Initial residual = 0.00129578, Final residual = 7.40612e-07, No Iterations 94
time step continuity errors : sum local = 3.35488e-10, global = 8.08721e-13, cumulative = 4.72371e-08
smoothSolver:  Solving for Bx, Initial residual = 0.0509209, Final residual = 4.91931e-06, No Iterations 11
smoothSolver:  Solving for By, Initial residual = 0.0377412, Final residual = 8.95409e-06, No Iterations 10
DICPCG:  Solving for pB, Initial residual = 0.0588732, Final residual = 8.5447e-06, No Iterations 11
magnetic flux divergence error = 5.79107e-10
smoothSolver:  Solving for Bx, Initial residual = 5.12702e-06, Final residual = 5.12702e-06, No Iterations 0
smoothSolver:  Solving for By, Initial residual = 0.000122719, Final residual = 9.37198e-06, No Iterations 3
DICPCG:  Solving for pB, Initial residual = 0.000156444, Final residual = 7.23728e-06, No Iterations 4
magnetic flux divergence error = 5.13122e-10
smoothSolver:  Solving for Bx, Initial residual = 5.12669e-06, Final residual = 5.12669e-06, No Iterations 0
smoothSolver:  Solving for By, Initial residual = 9.34222e-06, Final residual = 9.34222e-06, No Iterations 0
DICPCG:  Solving for pB, Initial residual = 7.23774e-06, Final residual = 7.23774e-06, No Iterations 0
magnetic flux divergence error = 5.13122e-10
Time = 0.045

Courant Number mean: 0.0126633 max: 0.031298
smoothSolver:  Solving for Ux, Initial residual = 0.0687175, Final residual = 5.12239e-06, No Iterations 11
smoothSolver:  Solving for Uy, Initial residual = 0.11103, Final residual = 6.14169e-06, No Iterations 11
DICPCG:  Solving for p, Initial residual = 0.0221423, Final residual = 0.000456954, No Iterations 89
time step continuity errors : sum local = 2.09487e-07, global = -4.35742e-09, cumulative = 4.28797e-08
DICPCG:  Solving for p, Initial residual = 0.0114727, Final residual = 0.000236212, No Iterations 89
time step continuity errors : sum local = 1.31745e-07, global = 2.58302e-09, cumulative = 4.54627e-08
DICPCG:  Solving for p, Initial residual = 0.0012189, Final residual = 6.53519e-07, No Iterations 94
time step continuity errors : sum local = 3.12212e-10, global = 5.9517e-13, cumulative = 4.54633e-08
smoothSolver:  Solving for Bx, Initial residual = 0.0364732, Final residual = 7.62794e-06, No Iterations 10
smoothSolver:  Solving for By, Initial residual = 0.0269439, Final residual = 7.09248e-06, No Iterations 10
DICPCG:  Solving for pB, Initial residual = 0.0436819, Final residual = 9.48252e-06, No Iterations 11
magnetic flux divergence error = 6.92232e-10
smoothSolver:  Solving for Bx, Initial residual = 7.5557e-06, Final residual = 7.5557e-06, No Iterations 0
smoothSolver:  Solving for By, Initial residual = 7.50518e-05, Final residual = 5.71009e-06, No Iterations 3
DICPCG:  Solving for pB, Initial residual = 9.09063e-05, Final residual = 9.60702e-06, No Iterations 3
magnetic flux divergence error = 7.21516e-10
smoothSolver:  Solving for Bx, Initial residual = 7.55544e-06, Final residual = 7.55544e-06, No Iterations 0
smoothSolver:  Solving for By, Initial residual = 5.69508e-06, Final residual = 5.69508e-06, No Iterations 0
DICPCG:  Solving for pB, Initial residual = 9.60745e-06, Final residual = 9.60745e-06, No Iterations 0
magnetic flux divergence error = 7.21516e-10
Time = 0.05

Courant Number mean: 0.0126378 max: 0.0285763
smoothSolver:  Solving for Ux, Initial residual = 0.0835786, Final residual = 6.35235e-06, No Iterations 11
smoothSolver:  Solving for Uy, Initial residual = 0.12629, Final residual = 7.38483e-06, No Iterations 11
DICPCG:  Solving for p, Initial residual = 0.0180214, Final residual = 0.00037955, No Iterations 89
time step continuity errors : sum local = 1.83368e-07, global = -3.65111e-09, cumulative = 4.18122e-08
DICPCG:  Solving for p, Initial residual = 0.00872511, Final residual = 0.000190731, No Iterations 89
time step continuity errors : sum local = 1.11721e-07, global = 2.15834e-09, cumulative = 4.39705e-08
DICPCG:  Solving for p, Initial residual = 0.00103713, Final residual = 5.28292e-07, No Iterations 94
time step continuity errors : sum local = 2.66249e-10, global = 3.42129e-13, cumulative = 4.39709e-08
smoothSolver:  Solving for Bx, Initial residual = 0.0237274, Final residual = 4.53099e-06, No Iterations 10
smoothSolver:  Solving for By, Initial residual = 0.0236767, Final residual = 5.95464e-06, No Iterations 10
DICPCG:  Solving for pB, Initial residual = 0.0333463, Final residual = 6.73832e-06, No Iterations 12
magnetic flux divergence error = 5.13182e-10
smoothSolver:  Solving for Bx, Initial residual = 4.56291e-06, Final residual = 4.56291e-06, No Iterations 0
smoothSolver:  Solving for By, Initial residual = 4.19864e-05, Final residual = 7.34627e-06, No Iterations 2
DICPCG:  Solving for pB, Initial residual = 4.0709e-05, Final residual = 6.5224e-06, No Iterations 2
magnetic flux divergence error = 5.03632e-10
smoothSolver:  Solving for Bx, Initial residual = 4.56275e-06, Final residual = 4.56275e-06, No Iterations 0
smoothSolver:  Solving for By, Initial residual = 7.34096e-06, Final residual = 7.34096e-06, No Iterations 0
DICPCG:  Solving for pB, Initial residual = 6.52259e-06, Final residual = 6.52259e-06, No Iterations 0
magnetic flux divergence error = 5.03632e-10
Time = 0.055

Courant Number mean: 0.0126096 max: 0.0258499
smoothSolver:  Solving for Ux, Initial residual = 0.0903797, Final residual = 6.88837e-06, No Iterations 11
smoothSolver:  Solving for Uy, Initial residual = 0.149273, Final residual = 9.23768e-06, No Iterations 11
DICPCG:  Solving for p, Initial residual = 0.0135132, Final residual = 0.000279172, No Iterations 89
time step continuity errors : sum local = 1.42008e-07, global = -2.82413e-09, cumulative = 4.11468e-08
DICPCG:  Solving for p, Initial residual = 0.00606957, Final residual = 0.000141901, No Iterations 89
time step continuity errors : sum local = 8.69262e-08, global = 1.6142e-09, cumulative = 4.2761e-08
DICPCG:  Solving for p, Initial residual = 0.000810864, Final residual = 4.48013e-07, No Iterations 94
time step continuity errors : sum local = 2.37784e-10, global = 4.31751e-13, cumulative = 4.27614e-08
smoothSolver:  Solving for Bx, Initial residual = 0.0143589, Final residual = 4.57753e-06, No Iterations 9
smoothSolver:  Solving for By, Initial residual = 0.0222397, Final residual = 5.01092e-06, No Iterations 10
DICPCG:  Solving for pB, Initial residual = 0.0282786, Final residual = 9.00317e-06, No Iterations 12
magnetic flux divergence error = 6.95904e-10
smoothSolver:  Solving for Bx, Initial residual = 4.5617e-06, Final residual = 4.5617e-06, No Iterations 0
smoothSolver:  Solving for By, Initial residual = 2.30309e-05, Final residual = 9.21859e-06, No Iterations 1
DICPCG:  Solving for pB, Initial residual = 3.18609e-05, Final residual = 7.97509e-06, No Iterations 1
magnetic flux divergence error = 6.17081e-10
smoothSolver:  Solving for Bx, Initial residual = 4.56185e-06, Final residual = 4.56185e-06, No Iterations 0
smoothSolver:  Solving for By, Initial residual = 9.21576e-06, Final residual = 9.21576e-06, No Iterations 0
DICPCG:  Solving for pB, Initial residual = 7.97518e-06, Final residual = 7.97518e-06, No Iterations 0
magnetic flux divergence error = 6.17081e-10
Time = 0.06

Courant Number mean: 0.0125842 max: 0.0236619
smoothSolver:  Solving for Ux, Initial residual = 0.0831317, Final residual = 6.34336e-06, No Iterations 11
smoothSolver:  Solving for Uy, Initial residual = 0.16284, Final residual = 4.54937e-06, No Iterations 12
DICPCG:  Solving for p, Initial residual = 0.0143784, Final residual = 0.000663226, No Iterations 88
time step continuity errors : sum local = 3.55254e-07, global = -8.50702e-09, cumulative = 3.42544e-08
DICPCG:  Solving for p, Initial residual = 0.00664131, Final residual = 0.00029896, No Iterations 88
time step continuity errors : sum local = 1.9059e-07, global = 4.69084e-09, cumulative = 3.89452e-08
DICPCG:  Solving for p, Initial residual = 0.00107259, Final residual = 5.10906e-07, No Iterations 94
time step continuity errors : sum local = 2.84605e-10, global = 7.22736e-13, cumulative = 3.89459e-08
smoothSolver:  Solving for Bx, Initial residual = 0.0170652, Final residual = 9.74842e-06, No Iterations 8
smoothSolver:  Solving for By, Initial residual = 0.0232609, Final residual = 9.84727e-06, No Iterations 9
DICPCG:  Solving for pB, Initial residual = 0.0365351, Final residual = 7.99356e-06, No Iterations 13
magnetic flux divergence error = 6.12186e-10
smoothSolver:  Solving for Bx, Initial residual = 9.69341e-06, Final residual = 9.69341e-06, No Iterations 0
smoothSolver:  Solving for By, Initial residual = 1.64481e-05, Final residual = 6.35424e-06, No Iterations 1
DICPCG:  Solving for pB, Initial residual = 3.29618e-05, Final residual = 7.97859e-06, No Iterations 1
magnetic flux divergence error = 6.04723e-10
smoothSolver:  Solving for Bx, Initial residual = 9.69334e-06, Final residual = 9.69334e-06, No Iterations 0
smoothSolver:  Solving for By, Initial residual = 6.35354e-06, Final residual = 6.35354e-06, No Iterations 0
DICPCG:  Solving for pB, Initial residual = 7.9787e-06, Final residual = 7.9787e-06, No Iterations 0
magnetic flux divergence error = 6.04723e-10
Time = 0.065

Courant Number mean: 0.0125705 max: 0.0221767
smoothSolver:  Solving for Ux, Initial residual = 0.0664144, Final residual = 4.95758e-06, No Iterations 11
smoothSolver:  Solving for Uy, Initial residual = 0.17456, Final residual = 4.39014e-06, No Iterations 12
DICPCG:  Solving for p, Initial residual = 0.0167725, Final residual = 0.000628254, No Iterations 88
time step continuity errors : sum local = 3.53634e-07, global = -8.36544e-09, cumulative = 3.05805e-08
DICPCG:  Solving for p, Initial residual = 0.00821646, Final residual = 0.000307768, No Iterations 88
time step continuity errors : sum local = 2.02615e-07, global = 4.62724e-09, cumulative = 3.52077e-08
DICPCG:  Solving for p, Initial residual = 0.00103822, Final residual = 4.70853e-07, No Iterations 94
time step continuity errors : sum local = 2.74084e-10, global = 1.109e-12, cumulative = 3.52088e-08
smoothSolver:  Solving for Bx, Initial residual = 0.0185383, Final residual = 4.97696e-06, No Iterations 9
smoothSolver:  Solving for By, Initial residual = 0.0267372, Final residual = 4.52769e-06, No Iterations 10
DICPCG:  Solving for pB, Initial residual = 0.046718, Final residual = 9.315e-06, No Iterations 13
magnetic flux divergence error = 6.92471e-10
smoothSolver:  Solving for Bx, Initial residual = 5.06847e-06, Final residual = 5.06847e-06, No Iterations 0
smoothSolver:  Solving for By, Initial residual = 1.33394e-05, Final residual = 5.00029e-06, No Iterations 1
DICPCG:  Solving for pB, Initial residual = 3.22142e-05, Final residual = 7.51186e-06, No Iterations 1
magnetic flux divergence error = 5.47506e-10
smoothSolver:  Solving for Bx, Initial residual = 5.06847e-06, Final residual = 5.06847e-06, No Iterations 0
smoothSolver:  Solving for By, Initial residual = 4.99956e-06, Final residual = 4.99956e-06, No Iterations 0
DICPCG:  Solving for pB, Initial residual = 7.51195e-06, Final residual = 7.51195e-06, No Iterations 0
magnetic flux divergence error = 5.47506e-10
Time = 0.07

Courant Number mean: 0.0125605 max: 0.0211782
smoothSolver:  Solving for Ux, Initial residual = 0.0474228, Final residual = 7.76087e-06, No Iterations 10
smoothSolver:  Solving for Uy, Initial residual = 0.167661, Final residual = 8.89437e-06, No Iterations 11
DICPCG:  Solving for p, Initial residual = 0.0168736, Final residual = 0.000609484, No Iterations 88
time step continuity errors : sum local = 3.58458e-07, global = -8.83685e-09, cumulative = 2.6372e-08
DICPCG:  Solving for p, Initial residual = 0.0087152, Final residual = 0.000321376, No Iterations 88
time step continuity errors : sum local = 2.16028e-07, global = 5.13205e-09, cumulative = 3.15041e-08
DICPCG:  Solving for p, Initial residual = 0.00101711, Final residual = 4.6082e-07, No Iterations 94
time step continuity errors : sum local = 2.78809e-10, global = 1.053e-12, cumulative = 3.15051e-08
smoothSolver:  Solving for Bx, Initial residual = 0.0183722, Final residual = 5.94067e-06, No Iterations 9
smoothSolver:  Solving for By, Initial residual = 0.0279429, Final residual = 4.69111e-06, No Iterations 10
DICPCG:  Solving for pB, Initial residual = 0.0541291, Final residual = 9.76847e-06, No Iterations 14
magnetic flux divergence error = 6.93533e-10
smoothSolver:  Solving for Bx, Initial residual = 6.09463e-06, Final residual = 6.09463e-06, No Iterations 0
smoothSolver:  Solving for By, Initial residual = 1.21541e-05, Final residual = 4.56169e-06, No Iterations 1
DICPCG:  Solving for pB, Initial residual = 3.24687e-05, Final residual = 7.60555e-06, No Iterations 1
magnetic flux divergence error = 5.2561e-10
smoothSolver:  Solving for Bx, Initial residual = 6.09465e-06, Final residual = 6.09465e-06, No Iterations 0
smoothSolver:  Solving for By, Initial residual = 4.56142e-06, Final residual = 4.56142e-06, No Iterations 0
DICPCG:  Solving for pB, Initial residual = 7.60565e-06, Final residual = 7.60565e-06, No Iterations 0
magnetic flux divergence error = 5.2561e-10
Time = 0.075

Courant Number mean: 0.0125522 max: 0.0204895
smoothSolver:  Solving for Ux, Initial residual = 0.0305145, Final residual = 4.39604e-06, No Iterations 10
smoothSolver:  Solving for Uy, Initial residual = 0.142862, Final residual = 6.96968e-06, No Iterations 11
DICPCG:  Solving for p, Initial residual = 0.014972, Final residual = 0.000539962, No Iterations 88
time step continuity errors : sum local = 3.2954e-07, global = -8.67157e-09, cumulative = 2.28335e-08
DICPCG:  Solving for p, Initial residual = 0.00805117, Final residual = 0.000299964, No Iterations 88
time step continuity errors : sum local = 2.03291e-07, global = 5.04298e-09, cumulative = 2.78765e-08
DICPCG:  Solving for p, Initial residual = 0.000897165, Final residual = 8.90506e-07, No Iterations 93
time step continuity errors : sum local = 5.55567e-10, global = -3.92056e-13, cumulative = 2.78761e-08
smoothSolver:  Solving for Bx, Initial residual = 0.0167197, Final residual = 6.67294e-06, No Iterations 9
smoothSolver:  Solving for By, Initial residual = 0.0267955, Final residual = 4.51373e-06, No Iterations 10
DICPCG:  Solving for pB, Initial residual = 0.0579781, Final residual = 8.79852e-06, No Iterations 18
magnetic flux divergence error = 5.93119e-10
smoothSolver:  Solving for Bx, Initial residual = 6.86637e-06, Final residual = 6.86637e-06, No Iterations 0
smoothSolver:  Solving for By, Initial residual = 1.0615e-05, Final residual = 3.98819e-06, No Iterations 1
DICPCG:  Solving for pB, Initial residual = 2.97513e-05, Final residual = 6.45108e-06, No Iterations 1
magnetic flux divergence error = 4.23925e-10
smoothSolver:  Solving for Bx, Initial residual = 6.86636e-06, Final residual = 6.86636e-06, No Iterations 0
smoothSolver:  Solving for By, Initial residual = 3.98809e-06, Final residual = 3.98809e-06, No Iterations 0
DICPCG:  Solving for pB, Initial residual = 6.45117e-06, Final residual = 6.45117e-06, No Iterations 0
magnetic flux divergence error = 4.23925e-10
Time = 0.08

Courant Number mean: 0.0125464 max: 0.0199294
smoothSolver:  Solving for Ux, Initial residual = 0.020065, Final residual = 4.82283e-06, No Iterations 9
smoothSolver:  Solving for Uy, Initial residual = 0.108279, Final residual = 4.90345e-06, No Iterations 11
DICPCG:  Solving for p, Initial residual = 0.0119506, Final residual = 0.000424971, No Iterations 88
time step continuity errors : sum local = 2.66806e-07, global = -7.6063e-09, cumulative = 2.02698e-08
DICPCG:  Solving for p, Initial residual = 0.00688205, Final residual = 0.000252822, No Iterations 88
time step continuity errors : sum local = 1.70632e-07, global = 4.42219e-09, cumulative = 2.4692e-08
DICPCG:  Solving for p, Initial residual = 0.000717885, Final residual = 7.21127e-07, No Iterations 93
time step continuity errors : sum local = 4.59577e-10, global = -1.91067e-13, cumulative = 2.46918e-08
smoothSolver:  Solving for Bx, Initial residual = 0.014085, Final residual = 6.74353e-06, No Iterations 9
smoothSolver:  Solving for By, Initial residual = 0.0236769, Final residual = 9.52535e-06, No Iterations 9
DICPCG:  Solving for pB, Initial residual = 0.0581908, Final residual = 8.7432e-06, No Iterations 13
magnetic flux divergence error = 5.60651e-10
smoothSolver:  Solving for Bx, Initial residual = 6.94306e-06, Final residual = 6.94306e-06, No Iterations 0
smoothSolver:  Solving for By, Initial residual = 1.09936e-05, Final residual = 4.38008e-06, No Iterations 1
DICPCG:  Solving for pB, Initial residual = 2.91445e-05, Final residual = 7.50217e-06, No Iterations 1
magnetic flux divergence error = 4.69144e-10
smoothSolver:  Solving for Bx, Initial residual = 6.94305e-06, Final residual = 6.94305e-06, No Iterations 0
smoothSolver:  Solving for By, Initial residual = 4.38011e-06, Final residual = 4.38011e-06, No Iterations 0
DICPCG:  Solving for pB, Initial residual = 7.50231e-06, Final residual = 7.50231e-06, No Iterations 0
magnetic flux divergence error = 4.69144e-10
Time = 0.085

Courant Number mean: 0.0125418 max: 0.0196468
smoothSolver:  Solving for Ux, Initial residual = 0.020429, Final residual = 6.63153e-06, No Iterations 9
smoothSolver:  Solving for Uy, Initial residual = 0.0780179, Final residual = 8.10973e-06, No Iterations 10
DICPCG:  Solving for p, Initial residual = 0.0085232, Final residual = 0.000308663, No Iterations 88
time step continuity errors : sum local = 1.97479e-07, global = -6.04637e-09, cumulative = 1.86455e-08
DICPCG:  Solving for p, Initial residual = 0.00575117, Final residual = 0.000199114, No Iterations 88
time step continuity errors : sum local = 1.32467e-07, global = 3.46036e-09, cumulative = 2.21058e-08
DICPCG:  Solving for p, Initial residual = 0.000527284, Final residual = 5.27949e-07, No Iterations 93
time step continuity errors : sum local = 3.40455e-10, global = -1.04968e-12, cumulative = 2.21048e-08
smoothSolver:  Solving for Bx, Initial residual = 0.0111251, Final residual = 6.03686e-06, No Iterations 9
smoothSolver:  Solving for By, Initial residual = 0.0194443, Final residual = 8.02746e-06, No Iterations 9
DICPCG:  Solving for pB, Initial residual = 0.0545911, Final residual = 9.46635e-06, No Iterations 13
magnetic flux divergence error = 5.7903e-10
smoothSolver:  Solving for Bx, Initial residual = 6.21187e-06, Final residual = 6.21187e-06, No Iterations 0
smoothSolver:  Solving for By, Initial residual = 8.72124e-06, Final residual = 8.72124e-06, No Iterations 0
DICPCG:  Solving for pB, Initial residual = 9.68259e-06, Final residual = 9.68259e-06, No Iterations 0
magnetic flux divergence error = 5.7903e-10
smoothSolver:  Solving for Bx, Initial residual = 6.21187e-06, Final residual = 6.21187e-06, No Iterations 0
smoothSolver:  Solving for By, Initial residual = 8.72124e-06, Final residual = 8.72124e-06, No Iterations 0
DICPCG:  Solving for pB, Initial residual = 9.68259e-06, Final residual = 9.68259e-06, No Iterations 0
magnetic flux divergence error = 5.7903e-10
Time = 0.09

Courant Number mean: 0.0125376 max: 0.0194791
smoothSolver:  Solving for Ux, Initial residual = 0.0226326, Final residual = 9.56973e-06, No Iterations 9
smoothSolver:  Solving for Uy, Initial residual = 0.0601445, Final residual = 7.12354e-06, No Iterations 10
DICPCG:  Solving for p, Initial residual = 0.00644948, Final residual = 0.000263165, No Iterations 3
time step continuity errors : sum local = 1.6994e-07, global = -2.49576e-08, cumulative = -2.8528e-09
DICPCG:  Solving for p, Initial residual = 0.00491694, Final residual = 0.000163438, No Iterations 3
time step continuity errors : sum local = 1.05631e-07, global = -2.33755e-08, cumulative = -2.62283e-08
DICPCG:  Solving for p, Initial residual = 0.000444982, Final residual = 5.55331e-07, No Iterations 93
time step continuity errors : sum local = 3.5847e-10, global = -2.39431e-12, cumulative = -2.62307e-08
smoothSolver:  Solving for Bx, Initial residual = 0.00833768, Final residual = 4.79774e-06, No Iterations 9
smoothSolver:  Solving for By, Initial residual = 0.0152599, Final residual = 6.58463e-06, No Iterations 9
DICPCG:  Solving for pB, Initial residual = 0.0476546, Final residual = 9.33124e-06, No Iterations 13
magnetic flux divergence error = 5.48647e-10
smoothSolver:  Solving for Bx, Initial residual = 4.93125e-06, Final residual = 4.93125e-06, No Iterations 0
smoothSolver:  Solving for By, Initial residual = 6.79412e-06, Final residual = 6.79412e-06, No Iterations 0
DICPCG:  Solving for pB, Initial residual = 9.49339e-06, Final residual = 9.49339e-06, No Iterations 0
magnetic flux divergence error = 5.48647e-10
smoothSolver:  Solving for Bx, Initial residual = 4.93125e-06, Final residual = 4.93125e-06, No Iterations 0
smoothSolver:  Solving for By, Initial residual = 6.79412e-06, Final residual = 6.79412e-06, No Iterations 0
DICPCG:  Solving for pB, Initial residual = 9.49339e-06, Final residual = 9.49339e-06, No Iterations 0
magnetic flux divergence error = 5.48647e-10
Time = 0.095

Courant Number mean: 0.0125356 max: 0.0194035
smoothSolver:  Solving for Ux, Initial residual = 0.0252247, Final residual = 4.80869e-06, No Iterations 10
smoothSolver:  Solving for Uy, Initial residual = 0.0547979, Final residual = 7.71409e-06, No Iterations 10
DICPCG:  Solving for p, Initial residual = 0.00523734, Final residual = 0.000173116, No Iterations 86
time step continuity errors : sum local = 1.12467e-07, global = 1.23906e-09, cumulative = -2.49916e-08
DICPCG:  Solving for p, Initial residual = 0.00385539, Final residual = 0.000136652, No Iterations 87
time step continuity errors : sum local = 8.4818e-08, global = 1.24995e-09, cumulative = -2.37417e-08
DICPCG:  Solving for p, Initial residual = 0.000283575, Final residual = 3.95302e-07, No Iterations 93
time step continuity errors : sum local = 2.54286e-10, global = 9.11285e-13, cumulative = -2.37408e-08
smoothSolver:  Solving for Bx, Initial residual = 0.00643137, Final residual = 7.54243e-06, No Iterations 8
smoothSolver:  Solving for By, Initial residual = 0.012089, Final residual = 5.4809e-06, No Iterations 9
DICPCG:  Solving for pB, Initial residual = 0.038611, Final residual = 8.3806e-06, No Iterations 13
magnetic flux divergence error = 4.81965e-10
smoothSolver:  Solving for Bx, Initial residual = 7.65435e-06, Final residual = 7.65435e-06, No Iterations 0
smoothSolver:  Solving for By, Initial residual = 5.99596e-06, Final residual = 5.99596e-06, No Iterations 0
DICPCG:  Solving for pB, Initial residual = 8.42204e-06, Final residual = 8.42204e-06, No Iterations 0
magnetic flux divergence error = 4.81965e-10
smoothSolver:  Solving for Bx, Initial residual = 7.65435e-06, Final residual = 7.65435e-06, No Iterations 0
smoothSolver:  Solving for By, Initial residual = 5.99596e-06, Final residual = 5.99596e-06, No Iterations 0
DICPCG:  Solving for pB, Initial residual = 8.42204e-06, Final residual = 8.42204e-06, No Iterations 0
magnetic flux divergence error = 4.81965e-10
Time = 0.1

Courant Number mean: 0.0125354 max: 0.0194069
smoothSolver:  Solving for Ux, Initial residual = 0.0265662, Final residual = 4.743e-06, No Iterations 10
smoothSolver:  Solving for Uy, Initial residual = 0.0580178, Final residual = 8.73916e-06, No Iterations 10
DICPCG:  Solving for p, Initial residual = 0.00464019, Final residual = 0.000220055, No Iterations 86
time step continuity errors : sum local = 1.413e-07, global = 1.68302e-09, cumulative = -2.20578e-08
DICPCG:  Solving for p, Initial residual = 0.00311095, Final residual = 9.0783e-05, No Iterations 87
time step continuity errors : sum local = 5.61759e-08, global = -6.02006e-10, cumulative = -2.26598e-08
DICPCG:  Solving for p, Initial residual = 0.000254102, Final residual = 5.57613e-07, No Iterations 92
time step continuity errors : sum local = 3.55165e-10, global = -2.49638e-12, cumulative = -2.26623e-08
smoothSolver:  Solving for Bx, Initial residual = 0.00557151, Final residual = 4.29254e-06, No Iterations 8
smoothSolver:  Solving for By, Initial residual = 0.00973498, Final residual = 4.79169e-06, No Iterations 9
DICPCG:  Solving for pB, Initial residual = 0.0305554, Final residual = 7.10333e-06, No Iterations 13
magnetic flux divergence error = 4.0617e-10
smoothSolver:  Solving for Bx, Initial residual = 4.35265e-06, Final residual = 4.35265e-06, No Iterations 0
smoothSolver:  Solving for By, Initial residual = 5.69464e-06, Final residual = 5.69464e-06, No Iterations 0
DICPCG:  Solving for pB, Initial residual = 7.1091e-06, Final residual = 7.1091e-06, No Iterations 0
magnetic flux divergence error = 4.0617e-10
smoothSolver:  Solving for Bx, Initial residual = 4.35265e-06, Final residual = 4.35265e-06, No Iterations 0
smoothSolver:  Solving for By, Initial residual = 5.69464e-06, Final residual = 5.69464e-06, No Iterations 0
DICPCG:  Solving for pB, Initial residual = 7.1091e-06, Final residual = 7.1091e-06, No Iterations 0
magnetic flux divergence error = 4.0617e-10
Time = 0.105

Courant Number mean: 0.0125366 max: 0.0194676
smoothSolver:  Solving for Ux, Initial residual = 0.0243894, Final residual = 9.74588e-06, No Iterations 9
smoothSolver:  Solving for Uy, Initial residual = 0.0579533, Final residual = 8.70798e-06, No Iterations 10
DICPCG:  Solving for p, Initial residual = 0.0045334, Final residual = 0.000182374, No Iterations 87
time step continuity errors : sum local = 1.15847e-07, global = 2.97338e-09, cumulative = -1.96889e-08
DICPCG:  Solving for p, Initial residual = 0.00277823, Final residual = 0.000113488, No Iterations 87
time step continuity errors : sum local = 6.87624e-08, global = -1.04723e-09, cumulative = -2.07361e-08
DICPCG:  Solving for p, Initial residual = 0.000332095, Final residual = 5.90401e-07, No Iterations 92
time step continuity errors : sum local = 3.7122e-10, global = -1.64152e-12, cumulative = -2.07377e-08
smoothSolver:  Solving for Bx, Initial residual = 0.00541425, Final residual = 7.62776e-06, No Iterations 7
smoothSolver:  Solving for By, Initial residual = 0.00828081, Final residual = 4.41514e-06, No Iterations 9
DICPCG:  Solving for pB, Initial residual = 0.0240574, Final residual = 8.1848e-06, No Iterations 12
magnetic flux divergence error = 4.67624e-10
smoothSolver:  Solving for Bx, Initial residual = 7.65848e-06, Final residual = 7.65848e-06, No Iterations 0
smoothSolver:  Solving for By, Initial residual = 5.4307e-06, Final residual = 5.4307e-06, No Iterations 0
DICPCG:  Solving for pB, Initial residual = 8.18489e-06, Final residual = 8.18489e-06, No Iterations 0
magnetic flux divergence error = 4.67624e-10
smoothSolver:  Solving for Bx, Initial residual = 7.65848e-06, Final residual = 7.65848e-06, No Iterations 0
smoothSolver:  Solving for By, Initial residual = 5.4307e-06, Final residual = 5.4307e-06, No Iterations 0
DICPCG:  Solving for pB, Initial residual = 8.18489e-06, Final residual = 8.18489e-06, No Iterations 0
magnetic flux divergence error = 4.67624e-10
Time = 0.11

Courant Number mean: 0.0125422 max: 0.0195625
smoothSolver:  Solving for Ux, Initial residual = 0.0201352, Final residual = 7.71009e-06, No Iterations 9
smoothSolver:  Solving for Uy, Initial residual = 0.0535751, Final residual = 7.62465e-06, No Iterations 10
DICPCG:  Solving for p, Initial residual = 0.00452451, Final residual = 0.000103364, No Iterations 88
time step continuity errors : sum local = 6.47993e-08, global = 1.26011e-09, cumulative = -1.94776e-08
DICPCG:  Solving for p, Initial residual = 0.00256705, Final residual = 6.29445e-05, No Iterations 88
time step continuity errors : sum local = 3.75666e-08, global = -7.22577e-10, cumulative = -2.02002e-08
DICPCG:  Solving for p, Initial residual = 0.00023504, Final residual = 5.70837e-07, No Iterations 92
time step continuity errors : sum local = 3.54123e-10, global = -2.59615e-13, cumulative = -2.02005e-08
smoothSolver:  Solving for Bx, Initial residual = 0.00531572, Final residual = 7.44445e-06, No Iterations 7
smoothSolver:  Solving for By, Initial residual = 0.00759994, Final residual = 4.47297e-06, No Iterations 9
DICPCG:  Solving for pB, Initial residual = 0.0194244, Final residual = 6.69609e-06, No Iterations 12
magnetic flux divergence error = 3.82513e-10
smoothSolver:  Solving for Bx, Initial residual = 7.45275e-06, Final residual = 7.45275e-06, No Iterations 0
smoothSolver:  Solving for By, Initial residual = 5.26948e-06, Final residual = 5.26948e-06, No Iterations 0
DICPCG:  Solving for pB, Initial residual = 6.697e-06, Final residual = 6.697e-06, No Iterations 0
magnetic flux divergence error = 3.82513e-10
smoothSolver:  Solving for Bx, Initial residual = 7.45275e-06, Final residual = 7.45275e-06, No Iterations 0
smoothSolver:  Solving for By, Initial residual = 5.26948e-06, Final residual = 5.26948e-06, No Iterations 0
DICPCG:  Solving for pB, Initial residual = 6.697e-06, Final residual = 6.697e-06, No Iterations 0
magnetic flux divergence error = 3.82513e-10
Time = 0.115

Courant Number mean: 0.0125472 max: 0.0197104
smoothSolver:  Solving for Ux, Initial residual = 0.0149199, Final residual = 5.39814e-06, No Iterations 9
smoothSolver:  Solving for Uy, Initial residual = 0.047437, Final residual = 6.10474e-06, No Iterations 10
DICPCG:  Solving for p, Initial residual = 0.00429283, Final residual = 9.48387e-05, No Iterations 88
time step continuity errors : sum local = 5.86676e-08, global = 1.36406e-09, cumulative = -1.88364e-08
DICPCG:  Solving for p, Initial residual = 0.00245699, Final residual = 6.40492e-05, No Iterations 88
time step continuity errors : sum local = 3.79033e-08, global = -7.74539e-10, cumulative = -1.9611e-08
DICPCG:  Solving for p, Initial residual = 0.000216724, Final residual = 5.662e-07, No Iterations 92
time step continuity errors : sum local = 3.47004e-10, global = 4.2779e-13, cumulative = -1.96105e-08
smoothSolver:  Solving for Bx, Initial residual = 0.00499428, Final residual = 7.98161e-06, No Iterations 7
smoothSolver:  Solving for By, Initial residual = 0.00749504, Final residual = 4.50905e-06, No Iterations 9
DICPCG:  Solving for pB, Initial residual = 0.015989, Final residual = 8.63679e-06, No Iterations 11
magnetic flux divergence error = 4.9331e-10
smoothSolver:  Solving for Bx, Initial residual = 7.98114e-06, Final residual = 7.98114e-06, No Iterations 0
smoothSolver:  Solving for By, Initial residual = 5.03967e-06, Final residual = 5.03967e-06, No Iterations 0
DICPCG:  Solving for pB, Initial residual = 8.63676e-06, Final residual = 8.63676e-06, No Iterations 0
magnetic flux divergence error = 4.9331e-10
smoothSolver:  Solving for Bx, Initial residual = 7.98114e-06, Final residual = 7.98114e-06, No Iterations 0
smoothSolver:  Solving for By, Initial residual = 5.03967e-06, Final residual = 5.03967e-06, No Iterations 0
DICPCG:  Solving for pB, Initial residual = 8.63676e-06, Final residual = 8.63676e-06, No Iterations 0
magnetic flux divergence error = 4.9331e-10
Time = 0.12

Courant Number mean: 0.0125509 max: 0.0198786
smoothSolver:  Solving for Ux, Initial residual = 0.00974132, Final residual = 7.50319e-06, No Iterations 8
smoothSolver:  Solving for Uy, Initial residual = 0.0383256, Final residual = 4.56981e-06, No Iterations 10
DICPCG:  Solving for p, Initial residual = 0.00376853, Final residual = 9.13839e-05, No Iterations 88
time step continuity errors : sum local = 5.58744e-08, global = 1.28852e-09, cumulative = -1.8322e-08
DICPCG:  Solving for p, Initial residual = 0.002154, Final residual = 5.98036e-05, No Iterations 88
time step continuity errors : sum local = 3.53102e-08, global = -7.48686e-10, cumulative = -1.90707e-08
DICPCG:  Solving for p, Initial residual = 0.000185458, Final residual = 7.89812e-07, No Iterations 91
time step continuity errors : sum local = 4.79414e-10, global = 3.87337e-12, cumulative = -1.90668e-08
smoothSolver:  Solving for Bx, Initial residual = 0.00440168, Final residual = 8.5587e-06, No Iterations 7
smoothSolver:  Solving for By, Initial residual = 0.00727018, Final residual = 4.49156e-06, No Iterations 9
DICPCG:  Solving for pB, Initial residual = 0.0134488, Final residual = 7.61061e-06, No Iterations 11
magnetic flux divergence error = 4.34864e-10
smoothSolver:  Solving for Bx, Initial residual = 8.55527e-06, Final residual = 8.55527e-06, No Iterations 0
smoothSolver:  Solving for By, Initial residual = 4.7722e-06, Final residual = 4.7722e-06, No Iterations 0
DICPCG:  Solving for pB, Initial residual = 7.60771e-06, Final residual = 7.60771e-06, No Iterations 0
magnetic flux divergence error = 4.34864e-10
smoothSolver:  Solving for Bx, Initial residual = 8.55527e-06, Final residual = 8.55527e-06, No Iterations 0
smoothSolver:  Solving for By, Initial residual = 4.7722e-06, Final residual = 4.7722e-06, No Iterations 0
DICPCG:  Solving for pB, Initial residual = 7.60771e-06, Final residual = 7.60771e-06, No Iterations 0
magnetic flux divergence error = 4.34864e-10
Time = 0.125

Courant Number mean: 0.0125531 max: 0.0200137
smoothSolver:  Solving for Ux, Initial residual = 0.00548347, Final residual = 8.24743e-06, No Iterations 7
smoothSolver:  Solving for Uy, Initial residual = 0.0282503, Final residual = 7.57848e-06, No Iterations 9
DICPCG:  Solving for p, Initial residual = 0.00297159, Final residual = 0.000148414, No Iterations 87
time step continuity errors : sum local = 8.99398e-08, global = 2.71169e-09, cumulative = -1.63551e-08
DICPCG:  Solving for p, Initial residual = 0.00188099, Final residual = 8.34844e-05, No Iterations 87
time step continuity errors : sum local = 4.94159e-08, global = -1.16481e-09, cumulative = -1.75199e-08
DICPCG:  Solving for p, Initial residual = 0.000200402, Final residual = 9.57386e-07, No Iterations 91
time step continuity errors : sum local = 5.77344e-10, global = 6.65727e-12, cumulative = -1.75133e-08
smoothSolver:  Solving for Bx, Initial residual = 0.00365285, Final residual = 8.73948e-06, No Iterations 7
smoothSolver:  Solving for By, Initial residual = 0.00690502, Final residual = 9.88489e-06, No Iterations 8
DICPCG:  Solving for pB, Initial residual = 0.0116524, Final residual = 7.18528e-06, No Iterations 11
magnetic flux divergence error = 4.11106e-10
smoothSolver:  Solving for Bx, Initial residual = 8.73283e-06, Final residual = 8.73283e-06, No Iterations 0
smoothSolver:  Solving for By, Initial residual = 9.82733e-06, Final residual = 9.82733e-06, No Iterations 0
DICPCG:  Solving for pB, Initial residual = 7.17849e-06, Final residual = 7.17849e-06, No Iterations 0
magnetic flux divergence error = 4.11106e-10
smoothSolver:  Solving for Bx, Initial residual = 8.73283e-06, Final residual = 8.73283e-06, No Iterations 0
smoothSolver:  Solving for By, Initial residual = 9.82733e-06, Final residual = 9.82733e-06, No Iterations 0
DICPCG:  Solving for pB, Initial residual = 7.17849e-06, Final residual = 7.17849e-06, No Iterations 0
magnetic flux divergence error = 4.11106e-10
Time = 0.13

Courant Number mean: 0.0125539 max: 0.0201083
smoothSolver:  Solving for Ux, Initial residual = 0.00441474, Final residual = 7.1521e-06, No Iterations 7
smoothSolver:  Solving for Uy, Initial residual = 0.018755, Final residual = 5.02111e-06, No Iterations 9
DICPCG:  Solving for p, Initial residual = 0.00215068, Final residual = 6.56917e-05, No Iterations 87
time step continuity errors : sum local = 3.95785e-08, global = 1.06975e-09, cumulative = -1.64435e-08
DICPCG:  Solving for p, Initial residual = 0.00152347, Final residual = 5.53111e-05, No Iterations 87
time step continuity errors : sum local = 3.2915e-08, global = -1.05944e-09, cumulative = -1.7503e-08
DICPCG:  Solving for p, Initial residual = 0.00012008, Final residual = 9.41027e-07, No Iterations 91
time step continuity errors : sum local = 5.65523e-10, global = 3.49768e-12, cumulative = -1.74995e-08
smoothSolver:  Solving for Bx, Initial residual = 0.00286794, Final residual = 7.92391e-06, No Iterations 7
smoothSolver:  Solving for By, Initial residual = 0.00646208, Final residual = 9.61664e-06, No Iterations 8
DICPCG:  Solving for pB, Initial residual = 0.0101759, Final residual = 7.12258e-06, No Iterations 11
magnetic flux divergence error = 4.08571e-10
smoothSolver:  Solving for Bx, Initial residual = 7.91478e-06, Final residual = 7.91478e-06, No Iterations 0
smoothSolver:  Solving for By, Initial residual = 9.48032e-06, Final residual = 9.48032e-06, No Iterations 0
DICPCG:  Solving for pB, Initial residual = 7.11098e-06, Final residual = 7.11098e-06, No Iterations 0
magnetic flux divergence error = 4.08571e-10
smoothSolver:  Solving for Bx, Initial residual = 7.91478e-06, Final residual = 7.91478e-06, No Iterations 0
smoothSolver:  Solving for By, Initial residual = 9.48032e-06, Final residual = 9.48032e-06, No Iterations 0
DICPCG:  Solving for pB, Initial residual = 7.11098e-06, Final residual = 7.11098e-06, No Iterations 0
magnetic flux divergence error = 4.08571e-10
Time = 0.135

Courant Number mean: 0.0125537 max: 0.0201626
smoothSolver:  Solving for Ux, Initial residual = 0.00474996, Final residual = 4.59482e-06, No Iterations 8
smoothSolver:  Solving for Uy, Initial residual = 0.0134722, Final residual = 9.20126e-06, No Iterations 8
DICPCG:  Solving for p, Initial residual = 0.00163183, Final residual = 5.61559e-05, No Iterations 3
time step continuity errors : sum local = 3.37377e-08, global = 9.35068e-09, cumulative = -8.1488e-09
DICPCG:  Solving for p, Initial residual = 0.00118792, Final residual = 3.66613e-05, No Iterations 3
time step continuity errors : sum local = 2.20215e-08, global = 8.33883e-09, cumulative = 1.90027e-10
DICPCG:  Solving for p, Initial residual = 9.45451e-05, Final residual = 8.56281e-07, No Iterations 90
time step continuity errors : sum local = 5.14479e-10, global = -5.10093e-12, cumulative = 1.84926e-10
smoothSolver:  Solving for Bx, Initial residual = 0.00216524, Final residual = 6.4131e-06, No Iterations 7
smoothSolver:  Solving for By, Initial residual = 0.00604728, Final residual = 9.2737e-06, No Iterations 8
DICPCG:  Solving for pB, Initial residual = 0.00911109, Final residual = 7.16229e-06, No Iterations 11
magnetic flux divergence error = 4.12504e-10
smoothSolver:  Solving for Bx, Initial residual = 6.40558e-06, Final residual = 6.40558e-06, No Iterations 0
smoothSolver:  Solving for By, Initial residual = 9.11852e-06, Final residual = 9.11852e-06, No Iterations 0
DICPCG:  Solving for pB, Initial residual = 7.14523e-06, Final residual = 7.14523e-06, No Iterations 0
magnetic flux divergence error = 4.12504e-10
smoothSolver:  Solving for Bx, Initial residual = 6.40558e-06, Final residual = 6.40558e-06, No Iterations 0
smoothSolver:  Solving for By, Initial residual = 9.11852e-06, Final residual = 9.11852e-06, No Iterations 0
DICPCG:  Solving for pB, Initial residual = 7.14523e-06, Final residual = 7.14523e-06, No Iterations 0
magnetic flux divergence error = 4.12504e-10
Time = 0.14

Courant Number mean: 0.0125527 max: 0.0201818
smoothSolver:  Solving for Ux, Initial residual = 0.00534636, Final residual = 5.61905e-06, No Iterations 8
smoothSolver:  Solving for Uy, Initial residual = 0.011931, Final residual = 9.37203e-06, No Iterations 8
DICPCG:  Solving for p, Initial residual = 0.00127513, Final residual = 4.3679e-05, No Iterations 88
time step continuity errors : sum local = 2.61791e-08, global = -6.2717e-10, cumulative = -4.42244e-10
DICPCG:  Solving for p, Initial residual = 0.000886635, Final residual = 2.54395e-05, No Iterations 88
time step continuity errors : sum local = 1.5465e-08, global = 3.06498e-10, cumulative = -1.35746e-10
DICPCG:  Solving for p, Initial residual = 7.30246e-05, Final residual = 9.53839e-07, No Iterations 89
time step continuity errors : sum local = 5.73483e-10, global = 8.40205e-12, cumulative = -1.27344e-10
smoothSolver:  Solving for Bx, Initial residual = 0.00168409, Final residual = 4.57629e-06, No Iterations 7
smoothSolver:  Solving for By, Initial residual = 0.00574633, Final residual = 8.88732e-06, No Iterations 8
DICPCG:  Solving for pB, Initial residual = 0.00862521, Final residual = 7.25452e-06, No Iterations 11
magnetic flux divergence error = 4.20121e-10
smoothSolver:  Solving for Bx, Initial residual = 4.5722e-06, Final residual = 4.5722e-06, No Iterations 0
smoothSolver:  Solving for By, Initial residual = 8.74035e-06, Final residual = 8.74035e-06, No Iterations 0
DICPCG:  Solving for pB, Initial residual = 7.232e-06, Final residual = 7.232e-06, No Iterations 0
magnetic flux divergence error = 4.20121e-10
smoothSolver:  Solving for Bx, Initial residual = 4.5722e-06, Final residual = 4.5722e-06, No Iterations 0
smoothSolver:  Solving for By, Initial residual = 8.74035e-06, Final residual = 8.74035e-06, No Iterations 0
DICPCG:  Solving for pB, Initial residual = 7.232e-06, Final residual = 7.232e-06, No Iterations 0
magnetic flux divergence error = 4.20121e-10
Time = 0.145

Courant Number mean: 0.0125512 max: 0.0201742
smoothSolver:  Solving for Ux, Initial residual = 0.00579794, Final residual = 5.68455e-06, No Iterations 8
smoothSolver:  Solving for Uy, Initial residual = 0.0125844, Final residual = 4.37934e-06, No Iterations 9
DICPCG:  Solving for p, Initial residual = 0.00108583, Final residual = 3.45544e-05, No Iterations 88
time step continuity errors : sum local = 2.07847e-08, global = -4.00421e-10, cumulative = -5.27765e-10
DICPCG:  Solving for p, Initial residual = 0.000697409, Final residual = 2.8285e-05, No Iterations 88
time step continuity errors : sum local = 1.71649e-08, global = 3.43911e-10, cumulative = -1.83854e-10
DICPCG:  Solving for p, Initial residual = 7.60017e-05, Final residual = 6.13013e-07, No Iterations 90
time step continuity errors : sum local = 3.69444e-10, global = -2.09886e-12, cumulative = -1.85953e-10
smoothSolver:  Solving for Bx, Initial residual = 0.00122267, Final residual = 6.31778e-06, No Iterations 6
smoothSolver:  Solving for By, Initial residual = 0.00559052, Final residual = 8.48731e-06, No Iterations 8
DICPCG:  Solving for pB, Initial residual = 0.00857083, Final residual = 7.29846e-06, No Iterations 11
magnetic flux divergence error = 4.25598e-10
smoothSolver:  Solving for Bx, Initial residual = 6.30991e-06, Final residual = 6.30991e-06, No Iterations 0
smoothSolver:  Solving for By, Initial residual = 8.35407e-06, Final residual = 8.35407e-06, No Iterations 0
DICPCG:  Solving for pB, Initial residual = 7.27085e-06, Final residual = 7.27085e-06, No Iterations 0
magnetic flux divergence error = 4.25598e-10
smoothSolver:  Solving for Bx, Initial residual = 6.30991e-06, Final residual = 6.30991e-06, No Iterations 0
smoothSolver:  Solving for By, Initial residual = 8.35407e-06, Final residual = 8.35407e-06, No Iterations 0
DICPCG:  Solving for pB, Initial residual = 7.27085e-06, Final residual = 7.27085e-06, No Iterations 0
magnetic flux divergence error = 4.25598e-10
Time = 0.15

Courant Number mean: 0.0125498 max: 0.0201485
smoothSolver:  Solving for Ux, Initial residual = 0.00549653, Final residual = 5.19709e-06, No Iterations 8
smoothSolver:  Solving for Uy, Initial residual = 0.0128283, Final residual = 4.53827e-06, No Iterations 9
DICPCG:  Solving for p, Initial residual = 0.00101438, Final residual = 3.08724e-05, No Iterations 88
time step continuity errors : sum local = 1.86184e-08, global = -3.85366e-10, cumulative = -5.71318e-10
DICPCG:  Solving for p, Initial residual = 0.000590316, Final residual = 2.30808e-05, No Iterations 88
time step continuity errors : sum local = 1.40741e-08, global = 3.0152e-10, cumulative = -2.69798e-10
DICPCG:  Solving for p, Initial residual = 7.14655e-05, Final residual = 8.28825e-07, No Iterations 90
time step continuity errors : sum local = 5.01042e-10, global = -3.8413e-12, cumulative = -2.7364e-10
smoothSolver:  Solving for Bx, Initial residual = 0.00109182, Final residual = 9.54888e-06, No Iterations 5
smoothSolver:  Solving for By, Initial residual = 0.00544891, Final residual = 8.0983e-06, No Iterations 8
DICPCG:  Solving for pB, Initial residual = 0.0087778, Final residual = 7.01999e-06, No Iterations 11
magnetic flux divergence error = 4.12712e-10
smoothSolver:  Solving for Bx, Initial residual = 9.53957e-06, Final residual = 9.53957e-06, No Iterations 0
smoothSolver:  Solving for By, Initial residual = 7.98149e-06, Final residual = 7.98149e-06, No Iterations 0
DICPCG:  Solving for pB, Initial residual = 6.98952e-06, Final residual = 6.98952e-06, No Iterations 0
magnetic flux divergence error = 4.12712e-10
smoothSolver:  Solving for Bx, Initial residual = 9.53957e-06, Final residual = 9.53957e-06, No Iterations 0
smoothSolver:  Solving for By, Initial residual = 7.98149e-06, Final residual = 7.98149e-06, No Iterations 0
DICPCG:  Solving for pB, Initial residual = 6.98952e-06, Final residual = 6.98952e-06, No Iterations 0
magnetic flux divergence error = 4.12712e-10
Time = 0.155

Courant Number mean: 0.0125487 max: 0.020113
smoothSolver:  Solving for Ux, Initial residual = 0.00466922, Final residual = 4.2804e-06, No Iterations 8
smoothSolver:  Solving for Uy, Initial residual = 0.0125233, Final residual = 9.89589e-06, No Iterations 8
DICPCG:  Solving for p, Initial residual = 0.00102716, Final residual = 3.02541e-05, No Iterations 88
time step continuity errors : sum local = 1.83023e-08, global = -3.7345e-10, cumulative = -6.47089e-10
DICPCG:  Solving for p, Initial residual = 0.000545993, Final residual = 2.05028e-05, No Iterations 88
time step continuity errors : sum local = 1.25437e-08, global = 2.5572e-10, cumulative = -3.91369e-10
DICPCG:  Solving for p, Initial residual = 6.58838e-05, Final residual = 4.9403e-07, No Iterations 91
time step continuity errors : sum local = 2.99587e-10, global = -2.3114e-12, cumulative = -3.93681e-10
smoothSolver:  Solving for Bx, Initial residual = 0.00109172, Final residual = 9.04805e-06, No Iterations 5
smoothSolver:  Solving for By, Initial residual = 0.005276, Final residual = 7.73272e-06, No Iterations 8
DICPCG:  Solving for pB, Initial residual = 0.00901845, Final residual = 6.97857e-06, No Iterations 11
magnetic flux divergence error = 4.14049e-10
smoothSolver:  Solving for Bx, Initial residual = 9.04227e-06, Final residual = 9.04227e-06, No Iterations 0
smoothSolver:  Solving for By, Initial residual = 7.62963e-06, Final residual = 7.62963e-06, No Iterations 0
DICPCG:  Solving for pB, Initial residual = 6.94529e-06, Final residual = 6.94529e-06, No Iterations 0
magnetic flux divergence error = 4.14049e-10
smoothSolver:  Solving for Bx, Initial residual = 9.04227e-06, Final residual = 9.04227e-06, No Iterations 0
smoothSolver:  Solving for By, Initial residual = 7.62963e-06, Final residual = 7.62963e-06, No Iterations 0
DICPCG:  Solving for pB, Initial residual = 6.94529e-06, Final residual = 6.94529e-06, No Iterations 0
magnetic flux divergence error = 4.14049e-10
Time = 0.16

Courant Number mean: 0.0125478 max: 0.0200744
smoothSolver:  Solving for Ux, Initial residual = 0.00359184, Final residual = 7.39863e-06, No Iterations 7
smoothSolver:  Solving for Uy, Initial residual = 0.0116544, Final residual = 8.6568e-06, No Iterations 8
DICPCG:  Solving for p, Initial residual = 0.000986846, Final residual = 2.91505e-05, No Iterations 88
time step continuity errors : sum local = 1.76891e-08, global = -3.57914e-10, cumulative = -7.51595e-10
DICPCG:  Solving for p, Initial residual = 0.000530958, Final residual = 1.99476e-05, No Iterations 88
time step continuity errors : sum local = 1.22273e-08, global = 2.32776e-10, cumulative = -5.18819e-10
DICPCG:  Solving for p, Initial residual = 6.02843e-05, Final residual = 9.97834e-07, No Iterations 90
time step continuity errors : sum local = 6.06808e-10, global = -8.62703e-12, cumulative = -5.27446e-10
smoothSolver:  Solving for Bx, Initial residual = 0.00106591, Final residual = 9.51445e-06, No Iterations 5
smoothSolver:  Solving for By, Initial residual = 0.00508128, Final residual = 7.39928e-06, No Iterations 8
DICPCG:  Solving for pB, Initial residual = 0.00908145, Final residual = 7.38156e-06, No Iterations 11
magnetic flux divergence error = 4.42297e-10
smoothSolver:  Solving for Bx, Initial residual = 9.51265e-06, Final residual = 9.51265e-06, No Iterations 0
smoothSolver:  Solving for By, Initial residual = 7.30749e-06, Final residual = 7.30749e-06, No Iterations 0
DICPCG:  Solving for pB, Initial residual = 7.34438e-06, Final residual = 7.34438e-06, No Iterations 0
magnetic flux divergence error = 4.42297e-10
smoothSolver:  Solving for Bx, Initial residual = 9.51265e-06, Final residual = 9.51265e-06, No Iterations 0
smoothSolver:  Solving for By, Initial residual = 7.30749e-06, Final residual = 7.30749e-06, No Iterations 0
DICPCG:  Solving for pB, Initial residual = 7.34438e-06, Final residual = 7.34438e-06, No Iterations 0
magnetic flux divergence error = 4.42297e-10
Time = 0.165

Courant Number mean: 0.012547 max: 0.0200378
smoothSolver:  Solving for Ux, Initial residual = 0.0024735, Final residual = 4.76864e-06, No Iterations 7
smoothSolver:  Solving for Uy, Initial residual = 0.0100121, Final residual = 7.05717e-06, No Iterations 8
DICPCG:  Solving for p, Initial residual = 0.000877533, Final residual = 2.81731e-05, No Iterations 88
time step continuity errors : sum local = 1.71423e-08, global = -3.36129e-10, cumulative = -8.63575e-10
DICPCG:  Solving for p, Initial residual = 0.000480277, Final residual = 2.02998e-05, No Iterations 88
time step continuity errors : sum local = 1.24524e-08, global = 2.26646e-10, cumulative = -6.36929e-10
DICPCG:  Solving for p, Initial residual = 5.53357e-05, Final residual = 9.33854e-07, No Iterations 90
time step continuity errors : sum local = 5.69193e-10, global = -9.16072e-12, cumulative = -6.4609e-10
smoothSolver:  Solving for Bx, Initial residual = 0.000982802, Final residual = 9.90517e-06, No Iterations 5
smoothSolver:  Solving for By, Initial residual = 0.00487581, Final residual = 7.10288e-06, No Iterations 8
DICPCG:  Solving for pB, Initial residual = 0.00894456, Final residual = 7.76897e-06, No Iterations 11
magnetic flux divergence error = 4.70271e-10
smoothSolver:  Solving for Bx, Initial residual = 9.90848e-06, Final residual = 9.90848e-06, No Iterations 0
smoothSolver:  Solving for By, Initial residual = 7.01956e-06, Final residual = 7.01956e-06, No Iterations 0
DICPCG:  Solving for pB, Initial residual = 7.72945e-06, Final residual = 7.72945e-06, No Iterations 0
magnetic flux divergence error = 4.70271e-10
smoothSolver:  Solving for Bx, Initial residual = 9.90848e-06, Final residual = 9.90848e-06, No Iterations 0
smoothSolver:  Solving for By, Initial residual = 7.01956e-06, Final residual = 7.01956e-06, No Iterations 0
DICPCG:  Solving for pB, Initial residual = 7.72945e-06, Final residual = 7.72945e-06, No Iterations 0
magnetic flux divergence error = 4.70271e-10
Time = 0.17

Courant Number mean: 0.0125464 max: 0.0200062
smoothSolver:  Solving for Ux, Initial residual = 0.00149158, Final residual = 5.91767e-06, No Iterations 6
smoothSolver:  Solving for Uy, Initial residual = 0.00787982, Final residual = 5.45885e-06, No Iterations 8
DICPCG:  Solving for p, Initial residual = 0.000720978, Final residual = 2.53607e-05, No Iterations 88
time step continuity errors : sum local = 1.5464e-08, global = -3.05967e-10, cumulative = -9.52057e-10
DICPCG:  Solving for p, Initial residual = 0.000415754, Final residual = 1.83073e-05, No Iterations 88
time step continuity errors : sum local = 1.12275e-08, global = 2.14281e-10, cumulative = -7.37776e-10
DICPCG:  Solving for p, Initial residual = 4.72026e-05, Final residual = 8.36832e-07, No Iterations 90
time step continuity errors : sum local = 5.10886e-10, global = -7.40106e-12, cumulative = -7.45177e-10
smoothSolver:  Solving for Bx, Initial residual = 0.000850234, Final residual = 9.89718e-06, No Iterations 5
smoothSolver:  Solving for By, Initial residual = 0.00466978, Final residual = 6.8433e-06, No Iterations 8
DICPCG:  Solving for pB, Initial residual = 0.00864032, Final residual = 7.74413e-06, No Iterations 11
magnetic flux divergence error = 4.73568e-10
smoothSolver:  Solving for Bx, Initial residual = 9.90699e-06, Final residual = 9.90699e-06, No Iterations 0
smoothSolver:  Solving for By, Initial residual = 6.76644e-06, Final residual = 6.76644e-06, No Iterations 0
DICPCG:  Solving for pB, Initial residual = 7.70502e-06, Final residual = 7.70502e-06, No Iterations 0
magnetic flux divergence error = 4.73568e-10
smoothSolver:  Solving for Bx, Initial residual = 9.90699e-06, Final residual = 9.90699e-06, No Iterations 0
smoothSolver:  Solving for By, Initial residual = 6.76644e-06, Final residual = 6.76644e-06, No Iterations 0
DICPCG:  Solving for pB, Initial residual = 7.70502e-06, Final residual = 7.70502e-06, No Iterations 0
magnetic flux divergence error = 4.73568e-10
Time = 0.175

Courant Number mean: 0.012546 max: 0.0199814
smoothSolver:  Solving for Ux, Initial residual = 0.000930691, Final residual = 7.00079e-06, No Iterations 5
smoothSolver:  Solving for Uy, Initial residual = 0.00567036, Final residual = 9.44865e-06, No Iterations 7
DICPCG:  Solving for p, Initial residual = 0.000543851, Final residual = 2.2737e-05, No Iterations 88
time step continuity errors : sum local = 1.38846e-08, global = -2.74584e-10, cumulative = -1.01976e-09
DICPCG:  Solving for p, Initial residual = 0.000353318, Final residual = 1.60312e-05, No Iterations 88
time step continuity errors : sum local = 9.82286e-09, global = 1.90052e-10, cumulative = -8.29709e-10
DICPCG:  Solving for p, Initial residual = 3.83997e-05, Final residual = 9.75516e-07, No Iterations 19
time step continuity errors : sum local = 5.96132e-10, global = 6.2029e-11, cumulative = -7.6768e-10
smoothSolver:  Solving for Bx, Initial residual = 0.000692361, Final residual = 9.45667e-06, No Iterations 5
smoothSolver:  Solving for By, Initial residual = 0.0044715, Final residual = 6.61732e-06, No Iterations 8
DICPCG:  Solving for pB, Initial residual = 0.00821055, Final residual = 7.68868e-06, No Iterations 11
magnetic flux divergence error = 4.74929e-10
smoothSolver:  Solving for Bx, Initial residual = 9.47166e-06, Final residual = 9.47166e-06, No Iterations 0
smoothSolver:  Solving for By, Initial residual = 6.54579e-06, Final residual = 6.54579e-06, No Iterations 0
DICPCG:  Solving for pB, Initial residual = 7.65058e-06, Final residual = 7.65058e-06, No Iterations 0
magnetic flux divergence error = 4.74929e-10
smoothSolver:  Solving for Bx, Initial residual = 9.47166e-06, Final residual = 9.47166e-06, No Iterations 0
smoothSolver:  Solving for By, Initial residual = 6.54579e-06, Final residual = 6.54579e-06, No Iterations 0
DICPCG:  Solving for pB, Initial residual = 7.65058e-06, Final residual = 7.65058e-06, No Iterations 0
magnetic flux divergence error = 4.74929e-10
Time = 0.18

Courant Number mean: 0.0125458 max: 0.0199638
smoothSolver:  Solving for Ux, Initial residual = 0.000979771, Final residual = 4.73544e-06, No Iterations 6
smoothSolver:  Solving for Uy, Initial residual = 0.00396869, Final residual = 6.9209e-06, No Iterations 7
DICPCG:  Solving for p, Initial residual = 0.000402652, Final residual = 1.83374e-05, No Iterations 88
time step continuity errors : sum local = 1.12074e-08, global = -2.38923e-10, cumulative = -1.0066e-09
DICPCG:  Solving for p, Initial residual = 0.000286657, Final residual = 1.37062e-05, No Iterations 88
time step continuity errors : sum local = 8.3875e-09, global = 1.62977e-10, cumulative = -8.43625e-10
DICPCG:  Solving for p, Initial residual = 3.10904e-05, Final residual = 9.90783e-07, No Iterations 9
time step continuity errors : sum local = 6.05695e-10, global = 4.62096e-11, cumulative = -7.97416e-10
smoothSolver:  Solving for Bx, Initial residual = 0.000533689, Final residual = 8.16855e-06, No Iterations 5
smoothSolver:  Solving for By, Initial residual = 0.00428769, Final residual = 6.42064e-06, No Iterations 8
DICPCG:  Solving for pB, Initial residual = 0.00777875, Final residual = 7.40288e-06, No Iterations 11
magnetic flux divergence error = 4.61791e-10
smoothSolver:  Solving for Bx, Initial residual = 8.18309e-06, Final residual = 8.18309e-06, No Iterations 0
smoothSolver:  Solving for By, Initial residual = 6.35347e-06, Final residual = 6.35347e-06, No Iterations 0
DICPCG:  Solving for pB, Initial residual = 7.36716e-06, Final residual = 7.36716e-06, No Iterations 0
magnetic flux divergence error = 4.61791e-10
smoothSolver:  Solving for Bx, Initial residual = 8.18309e-06, Final residual = 8.18309e-06, No Iterations 0
smoothSolver:  Solving for By, Initial residual = 6.35347e-06, Final residual = 6.35347e-06, No Iterations 0
DICPCG:  Solving for pB, Initial residual = 7.36716e-06, Final residual = 7.36716e-06, No Iterations 0
magnetic flux divergence error = 4.61791e-10
Time = 0.185

Courant Number mean: 0.0125458 max: 0.0199531
smoothSolver:  Solving for Ux, Initial residual = 0.00110703, Final residual = 6.28682e-06, No Iterations 6
smoothSolver:  Solving for Uy, Initial residual = 0.00290449, Final residual = 5.67774e-06, No Iterations 7
DICPCG:  Solving for p, Initial residual = 0.000313477, Final residual = 1.27555e-05, No Iterations 13
time step continuity errors : sum local = 7.79798e-09, global = 1.11763e-09, cumulative = 3.20217e-10
DICPCG:  Solving for p, Initial residual = 0.00022804, Final residual = 1.04001e-05, No Iterations 11
time step continuity errors : sum local = 6.35802e-09, global = 1.07459e-09, cumulative = 1.39481e-09
DICPCG:  Solving for p, Initial residual = 1.85705e-05, Final residual = 7.7538e-07, No Iterations 88
time step continuity errors : sum local = 4.74009e-10, global = 1.28707e-11, cumulative = 1.40768e-09
smoothSolver:  Solving for Bx, Initial residual = 0.000413448, Final residual = 6.30476e-06, No Iterations 5
smoothSolver:  Solving for By, Initial residual = 0.00412432, Final residual = 6.24791e-06, No Iterations 8
DICPCG:  Solving for pB, Initial residual = 0.0073496, Final residual = 7.10487e-06, No Iterations 11
magnetic flux divergence error = 4.47453e-10
smoothSolver:  Solving for Bx, Initial residual = 6.31688e-06, Final residual = 6.31688e-06, No Iterations 0
smoothSolver:  Solving for By, Initial residual = 6.18426e-06, Final residual = 6.18426e-06, No Iterations 0
DICPCG:  Solving for pB, Initial residual = 7.07164e-06, Final residual = 7.07164e-06, No Iterations 0
magnetic flux divergence error = 4.47453e-10
smoothSolver:  Solving for Bx, Initial residual = 6.31688e-06, Final residual = 6.31688e-06, No Iterations 0
smoothSolver:  Solving for By, Initial residual = 6.18426e-06, Final residual = 6.18426e-06, No Iterations 0
DICPCG:  Solving for pB, Initial residual = 7.07164e-06, Final residual = 7.07164e-06, No Iterations 0
magnetic flux divergence error = 4.47453e-10
Time = 0.19

Courant Number mean: 0.0125458 max: 0.0199481
smoothSolver:  Solving for Ux, Initial residual = 0.00125634, Final residual = 6.89463e-06, No Iterations 6
smoothSolver:  Solving for Uy, Initial residual = 0.00280281, Final residual = 5.33981e-06, No Iterations 7
DICPCG:  Solving for p, Initial residual = 0.000262494, Final residual = 1.28104e-05, No Iterations 43
time step continuity errors : sum local = 7.82826e-09, global = 5.20421e-10, cumulative = 1.9281e-09
DICPCG:  Solving for p, Initial residual = 0.000177155, Final residual = 8.61814e-06, No Iterations 43
time step continuity errors : sum local = 5.26612e-09, global = 8.79769e-10, cumulative = 2.80787e-09
DICPCG:  Solving for p, Initial residual = 2.31135e-05, Final residual = 5.74904e-07, No Iterations 88
time step continuity errors : sum local = 3.51294e-10, global = 5.17126e-12, cumulative = 2.81304e-09
smoothSolver:  Solving for Bx, Initial residual = 0.000315111, Final residual = 9.79546e-06, No Iterations 4
smoothSolver:  Solving for By, Initial residual = 0.00398759, Final residual = 6.09404e-06, No Iterations 8
DICPCG:  Solving for pB, Initial residual = 0.0069284, Final residual = 6.72004e-06, No Iterations 11
magnetic flux divergence error = 4.27144e-10
smoothSolver:  Solving for Bx, Initial residual = 9.80701e-06, Final residual = 9.80701e-06, No Iterations 0
smoothSolver:  Solving for By, Initial residual = 6.03302e-06, Final residual = 6.03302e-06, No Iterations 0
DICPCG:  Solving for pB, Initial residual = 6.68969e-06, Final residual = 6.68969e-06, No Iterations 0
magnetic flux divergence error = 4.27144e-10
smoothSolver:  Solving for Bx, Initial residual = 9.80701e-06, Final residual = 9.80701e-06, No Iterations 0
smoothSolver:  Solving for By, Initial residual = 6.03302e-06, Final residual = 6.03302e-06, No Iterations 0
DICPCG:  Solving for pB, Initial residual = 6.68969e-06, Final residual = 6.68969e-06, No Iterations 0
magnetic flux divergence error = 4.27144e-10
Time = 0.195

Courant Number mean: 0.012546 max: 0.0199477
smoothSolver:  Solving for Ux, Initial residual = 0.00124875, Final residual = 6.6129e-06, No Iterations 6
smoothSolver:  Solving for Uy, Initial residual = 0.00280311, Final residual = 5.45607e-06, No Iterations 7
DICPCG:  Solving for p, Initial residual = 0.000224105, Final residual = 6.7262e-06, No Iterations 88
time step continuity errors : sum local = 4.10896e-09, global = -7.65178e-11, cumulative = 2.73652e-09
DICPCG:  Solving for p, Initial residual = 0.000140961, Final residual = 5.16263e-06, No Iterations 88
time step continuity errors : sum local = 3.14898e-09, global = 5.8043e-11, cumulative = 2.79456e-09
DICPCG:  Solving for p, Initial residual = 1.57521e-05, Final residual = 8.00912e-07, No Iterations 6
time step continuity errors : sum local = 4.89101e-10, global = -1.4043e-11, cumulative = 2.78052e-09
smoothSolver:  Solving for Bx, Initial residual = 0.000249699, Final residual = 5.99441e-06, No Iterations 4
smoothSolver:  Solving for By, Initial residual = 0.00386954, Final residual = 5.95355e-06, No Iterations 8
DICPCG:  Solving for pB, Initial residual = 0.00655288, Final residual = 6.35107e-06, No Iterations 11
magnetic flux divergence error = 4.07317e-10
smoothSolver:  Solving for Bx, Initial residual = 6.00296e-06, Final residual = 6.00296e-06, No Iterations 0
smoothSolver:  Solving for By, Initial residual = 5.8958e-06, Final residual = 5.8958e-06, No Iterations 0
DICPCG:  Solving for pB, Initial residual = 6.32321e-06, Final residual = 6.32321e-06, No Iterations 0
magnetic flux divergence error = 4.07317e-10
smoothSolver:  Solving for Bx, Initial residual = 6.00296e-06, Final residual = 6.00296e-06, No Iterations 0
smoothSolver:  Solving for By, Initial residual = 5.8958e-06, Final residual = 5.8958e-06, No Iterations 0
DICPCG:  Solving for pB, Initial residual = 6.32321e-06, Final residual = 6.32321e-06, No Iterations 0
magnetic flux divergence error = 4.07317e-10
Time = 0.2

Courant Number mean: 0.0125461 max: 0.0199503
smoothSolver:  Solving for Ux, Initial residual = 0.00112035, Final residual = 5.74674e-06, No Iterations 6
smoothSolver:  Solving for Uy, Initial residual = 0.00280145, Final residual = 5.37588e-06, No Iterations 7
DICPCG:  Solving for p, Initial residual = 0.000227392, Final residual = 7.25543e-06, No Iterations 84
time step continuity errors : sum local = 4.43004e-09, global = -5.98802e-11, cumulative = 2.72064e-09
DICPCG:  Solving for p, Initial residual = 0.000127137, Final residual = 3.6089e-06, No Iterations 88
time step continuity errors : sum local = 2.19837e-09, global = 3.3871e-11, cumulative = 2.75451e-09
DICPCG:  Solving for p, Initial residual = 1.39954e-05, Final residual = 6.88608e-07, No Iterations 10
time step continuity errors : sum local = 4.20238e-10, global = -5.14008e-11, cumulative = 2.70311e-09
smoothSolver:  Solving for Bx, Initial residual = 0.000244343, Final residual = 5.11488e-06, No Iterations 4
smoothSolver:  Solving for By, Initial residual = 0.00377045, Final residual = 5.82188e-06, No Iterations 8
DICPCG:  Solving for pB, Initial residual = 0.00624359, Final residual = 9.76795e-06, No Iterations 10
magnetic flux divergence error = 6.31931e-10
smoothSolver:  Solving for Bx, Initial residual = 5.1221e-06, Final residual = 5.1221e-06, No Iterations 0
[...]
smoothSolver:  Solving for Uy, Initial residual = 4.80358e-05, Final residual = 8.86649e-06, No Iterations 2
DICPCG:  Solving for p, Initial residual = 3.40902e-06, Final residual = 8.89725e-07, No Iterations 13
time step continuity errors : sum local = 5.4223e-10, global = 2.95894e-12, cumulative = -1.75141e-08
DICPCG:  Solving for p, Initial residual = 2.50923e-06, Final residual = 8.48948e-07, No Iterations 4
time step continuity errors : sum local = 5.17379e-10, global = 3.4956e-11, cumulative = -1.74792e-08
DICPCG:  Solving for p, Initial residual = 1.40878e-06, Final residual = 8.08047e-07, No Iterations 3
time step continuity errors : sum local = 4.92453e-10, global = 4.49092e-11, cumulative = -1.74343e-08
smoothSolver:  Solving for Bx, Initial residual = 8.9412e-06, Final residual = 8.9412e-06, No Iterations 0
smoothSolver:  Solving for By, Initial residual = 4.80161e-05, Final residual = 9.53199e-06, No Iterations 2
DICPCG:  Solving for pB, Initial residual = 7.65404e-05, Final residual = 4.58535e-06, No Iterations 5
magnetic flux divergence error = 6.07924e-10
smoothSolver:  Solving for Bx, Initial residual = 8.94133e-06, Final residual = 8.94133e-06, No Iterations 0
smoothSolver:  Solving for By, Initial residual = 9.53105e-06, Final residual = 9.53105e-06, No Iterations 0
DICPCG:  Solving for pB, Initial residual = 4.58504e-06, Final residual = 4.58504e-06, No Iterations 0
magnetic flux divergence error = 6.07924e-10
smoothSolver:  Solving for Bx, Initial residual = 8.94133e-06, Final residual = 8.94133e-06, No Iterations 0
smoothSolver:  Solving for By, Initial residual = 9.53105e-06, Final residual = 9.53105e-06, No Iterations 0
DICPCG:  Solving for pB, Initial residual = 4.58504e-06, Final residual = 4.58504e-06, No Iterations 0
magnetic flux divergence error = 6.07924e-10
Time = 1.96

Courant Number mean: 0.0125464 max: 0.0199591
smoothSolver:  Solving for Ux, Initial residual = 1.26459e-06, Final residual = 1.26459e-06, No Iterations 0
smoothSolver:  Solving for Uy, Initial residual = 6.46186e-05, Final residual = 5.54641e-06, No Iterations 3
DICPCG:  Solving for p, Initial residual = 3.53588e-06, Final residual = 9.28084e-07, No Iterations 3
time step continuity errors : sum local = 5.65608e-10, global = 5.96512e-11, cumulative = -1.73746e-08
DICPCG:  Solving for p, Initial residual = 2.89518e-06, Final residual = 8.33979e-07, No Iterations 3
time step continuity errors : sum local = 5.08257e-10, global = 6.38473e-11, cumulative = -1.73108e-08
DICPCG:  Solving for p, Initial residual = 1.10105e-06, Final residual = 8.33975e-07, No Iterations 1
time step continuity errors : sum local = 5.08254e-10, global = 6.60572e-11, cumulative = -1.72447e-08
smoothSolver:  Solving for Bx, Initial residual = 8.96901e-06, Final residual = 8.96901e-06, No Iterations 0
smoothSolver:  Solving for By, Initial residual = 4.7608e-05, Final residual = 9.45197e-06, No Iterations 2
DICPCG:  Solving for pB, Initial residual = 7.60113e-05, Final residual = 4.21921e-06, No Iterations 5
magnetic flux divergence error = 5.59456e-10
smoothSolver:  Solving for Bx, Initial residual = 8.96915e-06, Final residual = 8.96915e-06, No Iterations 0
smoothSolver:  Solving for By, Initial residual = 9.45105e-06, Final residual = 9.45105e-06, No Iterations 0
DICPCG:  Solving for pB, Initial residual = 4.21893e-06, Final residual = 4.21893e-06, No Iterations 0
magnetic flux divergence error = 5.59456e-10
smoothSolver:  Solving for Bx, Initial residual = 8.96915e-06, Final residual = 8.96915e-06, No Iterations 0
smoothSolver:  Solving for By, Initial residual = 9.45105e-06, Final residual = 9.45105e-06, No Iterations 0
DICPCG:  Solving for pB, Initial residual = 4.21893e-06, Final residual = 4.21893e-06, No Iterations 0
magnetic flux divergence error = 5.59456e-10
Time = 1.965

Courant Number mean: 0.0125464 max: 0.0199591
smoothSolver:  Solving for Ux, Initial residual = 1.07801e-06, Final residual = 1.07801e-06, No Iterations 0
smoothSolver:  Solving for Uy, Initial residual = 2.63399e-05, Final residual = 4.32662e-06, No Iterations 2
DICPCG:  Solving for p, Initial residual = 2.83299e-06, Final residual = 9.93871e-07, No Iterations 1
time step continuity errors : sum local = 6.05701e-10, global = 7.09028e-11, cumulative = -1.71738e-08
DICPCG:  Solving for p, Initial residual = 1.55607e-06, Final residual = 7.47908e-07, No Iterations 1
time step continuity errors : sum local = 4.55802e-10, global = 7.43463e-11, cumulative = -1.70995e-08
DICPCG:  Solving for p, Initial residual = 1.03799e-06, Final residual = 9.66193e-07, No Iterations 1
time step continuity errors : sum local = 5.88833e-10, global = 7.59339e-11, cumulative = -1.70235e-08
smoothSolver:  Solving for Bx, Initial residual = 8.99796e-06, Final residual = 8.99796e-06, No Iterations 0
smoothSolver:  Solving for By, Initial residual = 4.72155e-05, Final residual = 9.37432e-06, No Iterations 2
DICPCG:  Solving for pB, Initial residual = 7.51951e-05, Final residual = 4.56214e-06, No Iterations 5
magnetic flux divergence error = 6.05008e-10
smoothSolver:  Solving for Bx, Initial residual = 8.99809e-06, Final residual = 8.99809e-06, No Iterations 0
smoothSolver:  Solving for By, Initial residual = 9.37341e-06, Final residual = 9.37341e-06, No Iterations 0
DICPCG:  Solving for pB, Initial residual = 4.56184e-06, Final residual = 4.56184e-06, No Iterations 0
magnetic flux divergence error = 6.05008e-10
smoothSolver:  Solving for Bx, Initial residual = 8.99809e-06, Final residual = 8.99809e-06, No Iterations 0
smoothSolver:  Solving for By, Initial residual = 9.37341e-06, Final residual = 9.37341e-06, No Iterations 0
DICPCG:  Solving for pB, Initial residual = 4.56184e-06, Final residual = 4.56184e-06, No Iterations 0
magnetic flux divergence error = 6.05008e-10
Time = 1.97

Courant Number mean: 0.0125464 max: 0.0199591
smoothSolver:  Solving for Ux, Initial residual = 1.03071e-06, Final residual = 1.03071e-06, No Iterations 0
smoothSolver:  Solving for Uy, Initial residual = 2.23185e-05, Final residual = 9.39023e-06, No Iterations 1
DICPCG:  Solving for p, Initial residual = 1.89666e-06, Final residual = 7.70038e-07, No Iterations 8
time step continuity errors : sum local = 4.69289e-10, global = 1.25804e-11, cumulative = -1.70109e-08
DICPCG:  Solving for p, Initial residual = 1.48303e-06, Final residual = 9.91461e-07, No Iterations 6
time step continuity errors : sum local = 6.04231e-10, global = -6.4019e-12, cumulative = -1.70174e-08
DICPCG:  Solving for p, Initial residual = 1.79935e-06, Final residual = 9.58615e-07, No Iterations 4
time step continuity errors : sum local = 5.84214e-10, global = -1.7172e-11, cumulative = -1.70345e-08
smoothSolver:  Solving for Bx, Initial residual = 9.01229e-06, Final residual = 9.01229e-06, No Iterations 0
smoothSolver:  Solving for By, Initial residual = 4.68157e-05, Final residual = 9.29399e-06, No Iterations 2
DICPCG:  Solving for pB, Initial residual = 7.47001e-05, Final residual = 4.15161e-06, No Iterations 5
magnetic flux divergence error = 5.50638e-10
smoothSolver:  Solving for Bx, Initial residual = 9.01242e-06, Final residual = 9.01242e-06, No Iterations 0
smoothSolver:  Solving for By, Initial residual = 9.29311e-06, Final residual = 9.29311e-06, No Iterations 0
DICPCG:  Solving for pB, Initial residual = 4.15134e-06, Final residual = 4.15134e-06, No Iterations 0
magnetic flux divergence error = 5.50638e-10
smoothSolver:  Solving for Bx, Initial residual = 9.01242e-06, Final residual = 9.01242e-06, No Iterations 0
smoothSolver:  Solving for By, Initial residual = 9.29311e-06, Final residual = 9.29311e-06, No Iterations 0
DICPCG:  Solving for pB, Initial residual = 4.15134e-06, Final residual = 4.15134e-06, No Iterations 0
magnetic flux divergence error = 5.50638e-10
Time = 1.975

Courant Number mean: 0.0125464 max: 0.0199591
smoothSolver:  Solving for Ux, Initial residual = 1.97645e-06, Final residual = 1.97645e-06, No Iterations 0
smoothSolver:  Solving for Uy, Initial residual = 7.41676e-05, Final residual = 6.35283e-06, No Iterations 3
DICPCG:  Solving for p, Initial residual = 4.2409e-06, Final residual = 7.68128e-07, No Iterations 4
time step continuity errors : sum local = 4.68125e-10, global = -5.17028e-11, cumulative = -1.70862e-08
DICPCG:  Solving for p, Initial residual = 3.59664e-06, Final residual = 9.8705e-07, No Iterations 4
time step continuity errors : sum local = 6.01543e-10, global = -7.56553e-11, cumulative = -1.71619e-08
DICPCG:  Solving for p, Initial residual = 1.5782e-06, Final residual = 8.56809e-07, No Iterations 7
time step continuity errors : sum local = 5.2217e-10, global = -2.44988e-11, cumulative = -1.71864e-08
smoothSolver:  Solving for Bx, Initial residual = 9.03202e-06, Final residual = 9.03202e-06, No Iterations 0
smoothSolver:  Solving for By, Initial residual = 4.63314e-05, Final residual = 9.19826e-06, No Iterations 2
DICPCG:  Solving for pB, Initial residual = 7.38305e-05, Final residual = 4.35759e-06, No Iterations 5
magnetic flux divergence error = 5.78032e-10
smoothSolver:  Solving for Bx, Initial residual = 9.03214e-06, Final residual = 9.03214e-06, No Iterations 0
smoothSolver:  Solving for By, Initial residual = 9.19739e-06, Final residual = 9.19739e-06, No Iterations 0
DICPCG:  Solving for pB, Initial residual = 4.35731e-06, Final residual = 4.35731e-06, No Iterations 0
magnetic flux divergence error = 5.78032e-10
smoothSolver:  Solving for Bx, Initial residual = 9.03214e-06, Final residual = 9.03214e-06, No Iterations 0
smoothSolver:  Solving for By, Initial residual = 9.19739e-06, Final residual = 9.19739e-06, No Iterations 0
DICPCG:  Solving for pB, Initial residual = 4.35731e-06, Final residual = 4.35731e-06, No Iterations 0
magnetic flux divergence error = 5.78032e-10
Time = 1.98

Courant Number mean: 0.0125464 max: 0.0199591
smoothSolver:  Solving for Ux, Initial residual = 2.58953e-06, Final residual = 2.58953e-06, No Iterations 0
smoothSolver:  Solving for Uy, Initial residual = 5.27995e-05, Final residual = 4.48206e-06, No Iterations 3
DICPCG:  Solving for p, Initial residual = 3.26478e-06, Final residual = 8.44711e-07, No Iterations 7
time step continuity errors : sum local = 5.14797e-10, global = -1.30807e-11, cumulative = -1.71995e-08
DICPCG:  Solving for p, Initial residual = 2.51151e-06, Final residual = 8.89536e-07, No Iterations 7
time step continuity errors : sum local = 5.42115e-10, global = 1.79459e-11, cumulative = -1.71815e-08
DICPCG:  Solving for p, Initial residual = 1.68892e-06, Final residual = 9.09415e-07, No Iterations 5
time step continuity errors : sum local = 5.5423e-10, global = 1.58719e-11, cumulative = -1.71656e-08
smoothSolver:  Solving for Bx, Initial residual = 9.0564e-06, Final residual = 9.0564e-06, No Iterations 0
smoothSolver:  Solving for By, Initial residual = 4.59398e-05, Final residual = 9.12032e-06, No Iterations 2
DICPCG:  Solving for pB, Initial residual = 7.33044e-05, Final residual = 4.11809e-06, No Iterations 5
magnetic flux divergence error = 5.46333e-10
smoothSolver:  Solving for Bx, Initial residual = 9.05653e-06, Final residual = 9.05653e-06, No Iterations 0
smoothSolver:  Solving for By, Initial residual = 9.11947e-06, Final residual = 9.11947e-06, No Iterations 0
DICPCG:  Solving for pB, Initial residual = 4.11783e-06, Final residual = 4.11783e-06, No Iterations 0
magnetic flux divergence error = 5.46333e-10
smoothSolver:  Solving for Bx, Initial residual = 9.05653e-06, Final residual = 9.05653e-06, No Iterations 0
smoothSolver:  Solving for By, Initial residual = 9.11947e-06, Final residual = 9.11947e-06, No Iterations 0
DICPCG:  Solving for pB, Initial residual = 4.11783e-06, Final residual = 4.11783e-06, No Iterations 0
magnetic flux divergence error = 5.46333e-10
Time = 1.985

Courant Number mean: 0.0125464 max: 0.0199591
smoothSolver:  Solving for Ux, Initial residual = 1.46746e-06, Final residual = 1.46746e-06, No Iterations 0
smoothSolver:  Solving for Uy, Initial residual = 4.56173e-05, Final residual = 8.54728e-06, No Iterations 2
DICPCG:  Solving for p, Initial residual = 3.3107e-06, Final residual = 9.9356e-07, No Iterations 5
time step continuity errors : sum local = 6.05511e-10, global = 4.4407e-11, cumulative = -1.71212e-08
DICPCG:  Solving for p, Initial residual = 3.06846e-06, Final residual = 7.83999e-07, No Iterations 3
time step continuity errors : sum local = 4.77797e-10, global = 5.58325e-11, cumulative = -1.70654e-08
DICPCG:  Solving for p, Initial residual = 1.05629e-06, Final residual = 7.76231e-07, No Iterations 1
time step continuity errors : sum local = 4.73063e-10, global = 6.40903e-11, cumulative = -1.70013e-08
smoothSolver:  Solving for Bx, Initial residual = 9.08121e-06, Final residual = 9.08121e-06, No Iterations 0
smoothSolver:  Solving for By, Initial residual = 4.55057e-05, Final residual = 9.035e-06, No Iterations 2
DICPCG:  Solving for pB, Initial residual = 7.24803e-05, Final residual = 4.21059e-06, No Iterations 5
magnetic flux divergence error = 5.58676e-10
smoothSolver:  Solving for Bx, Initial residual = 9.08133e-06, Final residual = 9.08133e-06, No Iterations 0
smoothSolver:  Solving for By, Initial residual = 9.03416e-06, Final residual = 9.03416e-06, No Iterations 0
DICPCG:  Solving for pB, Initial residual = 4.21032e-06, Final residual = 4.21032e-06, No Iterations 0
magnetic flux divergence error = 5.58676e-10
smoothSolver:  Solving for Bx, Initial residual = 9.08133e-06, Final residual = 9.08133e-06, No Iterations 0
smoothSolver:  Solving for By, Initial residual = 9.03416e-06, Final residual = 9.03416e-06, No Iterations 0
DICPCG:  Solving for pB, Initial residual = 4.21032e-06, Final residual = 4.21032e-06, No Iterations 0
magnetic flux divergence error = 5.58676e-10
Time = 1.99

Courant Number mean: 0.0125464 max: 0.0199591
smoothSolver:  Solving for Ux, Initial residual = 9.23506e-07, Final residual = 9.23506e-07, No Iterations 0
smoothSolver:  Solving for Uy, Initial residual = 3.08657e-05, Final residual = 5.66388e-06, No Iterations 2
DICPCG:  Solving for p, Initial residual = 2.3391e-06, Final residual = 7.82326e-07, No Iterations 3
time step continuity errors : sum local = 4.76777e-10, global = 7.41098e-11, cumulative = -1.69272e-08
DICPCG:  Solving for p, Initial residual = 2.04118e-06, Final residual = 8.37741e-07, No Iterations 2
time step continuity errors : sum local = 5.1055e-10, global = 8.13353e-11, cumulative = -1.68459e-08
DICPCG:  Solving for p, Initial residual = 1.29774e-06, Final residual = 8.17931e-07, No Iterations 1
time step continuity errors : sum local = 4.98476e-10, global = 8.67253e-11, cumulative = -1.67591e-08
smoothSolver:  Solving for Bx, Initial residual = 9.10543e-06, Final residual = 9.10543e-06, No Iterations 0
smoothSolver:  Solving for By, Initial residual = 4.50935e-05, Final residual = 8.95342e-06, No Iterations 2
DICPCG:  Solving for pB, Initial residual = 7.19038e-05, Final residual = 4.00386e-06, No Iterations 5
magnetic flux divergence error = 5.31314e-10
smoothSolver:  Solving for Bx, Initial residual = 9.10555e-06, Final residual = 9.10555e-06, No Iterations 0
smoothSolver:  Solving for By, Initial residual = 8.95259e-06, Final residual = 8.95259e-06, No Iterations 0
DICPCG:  Solving for pB, Initial residual = 4.00361e-06, Final residual = 4.00361e-06, No Iterations 0
magnetic flux divergence error = 5.31314e-10
smoothSolver:  Solving for Bx, Initial residual = 9.10555e-06, Final residual = 9.10555e-06, No Iterations 0
smoothSolver:  Solving for By, Initial residual = 8.95259e-06, Final residual = 8.95259e-06, No Iterations 0
DICPCG:  Solving for pB, Initial residual = 4.00361e-06, Final residual = 4.00361e-06, No Iterations 0
magnetic flux divergence error = 5.31314e-10
Time = 1.995

Courant Number mean: 0.0125464 max: 0.0199591
smoothSolver:  Solving for Ux, Initial residual = 8.26476e-07, Final residual = 8.26476e-07, No Iterations 0
smoothSolver:  Solving for Uy, Initial residual = 1.81432e-05, Final residual = 7.81504e-06, No Iterations 1
DICPCG:  Solving for p, Initial residual = 1.29173e-06, Final residual = 8.67447e-07, No Iterations 1
time step continuity errors : sum local = 5.28653e-10, global = 9.57381e-11, cumulative = -1.66634e-08
DICPCG:  Solving for p, Initial residual = 8.38531e-07, Final residual = 8.38531e-07, No Iterations 0
time step continuity errors : sum local = 5.11031e-10, global = 1.02888e-10, cumulative = -1.65605e-08
DICPCG:  Solving for p, Initial residual = 9.7724e-07, Final residual = 9.7724e-07, No Iterations 0
time step continuity errors : sum local = 5.95565e-10, global = 1.08591e-10, cumulative = -1.64519e-08
smoothSolver:  Solving for Bx, Initial residual = 9.13013e-06, Final residual = 9.13013e-06, No Iterations 0
smoothSolver:  Solving for By, Initial residual = 4.46845e-05, Final residual = 8.87223e-06, No Iterations 2
DICPCG:  Solving for pB, Initial residual = 7.11823e-05, Final residual = 4.23415e-06, No Iterations 5
magnetic flux divergence error = 5.61943e-10
smoothSolver:  Solving for Bx, Initial residual = 9.13025e-06, Final residual = 9.13025e-06, No Iterations 0
smoothSolver:  Solving for By, Initial residual = 8.87142e-06, Final residual = 8.87142e-06, No Iterations 0
DICPCG:  Solving for pB, Initial residual = 4.23388e-06, Final residual = 4.23388e-06, No Iterations 0
magnetic flux divergence error = 5.61943e-10
smoothSolver:  Solving for Bx, Initial residual = 9.13025e-06, Final residual = 9.13025e-06, No Iterations 0
smoothSolver:  Solving for By, Initial residual = 8.87142e-06, Final residual = 8.87142e-06, No Iterations 0
DICPCG:  Solving for pB, Initial residual = 4.23388e-06, Final residual = 4.23388e-06, No Iterations 0
magnetic flux divergence error = 5.61943e-10
Time = 2

Courant Number mean: 0.0125464 max: 0.0199591
smoothSolver:  Solving for Ux, Initial residual = 8.19279e-07, Final residual = 8.19279e-07, No Iterations 0
smoothSolver:  Solving for Uy, Initial residual = 1.44949e-05, Final residual = 5.94291e-06, No Iterations 1
DICPCG:  Solving for p, Initial residual = 1.73061e-06, Final residual = 9.53219e-07, No Iterations 1
time step continuity errors : sum local = 5.80925e-10, global = 1.17747e-10, cumulative = -1.63342e-08
DICPCG:  Solving for p, Initial residual = 1.06057e-06, Final residual = 7.62336e-07, No Iterations 1
time step continuity errors : sum local = 4.64594e-10, global = 1.25388e-10, cumulative = -1.62088e-08
DICPCG:  Solving for p, Initial residual = 8.25721e-07, Final residual = 8.25721e-07, No Iterations 0
time step continuity errors : sum local = 5.03223e-10, global = 1.31386e-10, cumulative = -1.60774e-08
smoothSolver:  Solving for Bx, Initial residual = 9.1552e-06, Final residual = 9.1552e-06, No Iterations 0
smoothSolver:  Solving for By, Initial residual = 4.42775e-05, Final residual = 8.79141e-06, No Iterations 2
DICPCG:  Solving for pB, Initial residual = 7.0652e-05, Final residual = 9.84744e-06, No Iterations 4
magnetic flux divergence error = 1.30709e-09
smoothSolver:  Solving for Bx, Initial residual = 9.15543e-06, Final residual = 9.15543e-06, No Iterations 0
smoothSolver:  Solving for By, Initial residual = 8.79062e-06, Final residual = 8.79062e-06, No Iterations 0
DICPCG:  Solving for pB, Initial residual = 9.84683e-06, Final residual = 9.84683e-06, No Iterations 0
magnetic flux divergence error = 1.30709e-09
smoothSolver:  Solving for Bx, Initial residual = 9.15543e-06, Final residual = 9.15543e-06, No Iterations 0
smoothSolver:  Solving for By, Initial residual = 8.79062e-06, Final residual = 8.79062e-06, No Iterations 0
DICPCG:  Solving for pB, Initial residual = 9.84683e-06, Final residual = 9.84683e-06, No Iterations 0
magnetic flux divergence error = 1.30709e-09
    functionObjects::components components(U) writing field: Ux
    functionObjects::components components(U) writing field: Uy
    functionObjects::components components(U) writing field: Uz
End

