/*---------------------------------------------------------------------------*\
| =========                 |                                                 |
| \\      /  F ield         | OpenFOAM: The Open Source CFD Toolbox           |
|  \\    /   O peration     | Version:  v1906                                 |
|   \\  /    A nd           | Web:      www.OpenFOAM.com                      |
|    \\/     M anipulation  |                                                 |
\*---------------------------------------------------------------------------*/
Build  : 144f149615-20190918 OPENFOAM=1906 patch=190828
Arch   : "LSB;label=32;scalar=64"
Exec   : mhdFoam
Date   : Oct 26 2019
Time   : 20:50:04
Host   : DESKTOP-8KJCPKM
PID    : 21504
I/O    : uncollated
Case   : /home/tn/mhdfaom
nProcs : 1
trapFpe: Floating point exception trapping enabled (FOAM_SIGFPE).
fileModificationChecking : Monitoring run-time modified files using timeStampMaster (fileModificationSkew 10)
allowSystemOperations : Allowing user-supplied system call operations

// * * * * * * * * * * * * * * * * * * * * * * * * * * * * * * * * * * * * * //
Create time

Create mesh for time = 0


PISO: Operating solver in PISO mode


BPISO: Operating solver in PISO mode

Reading transportProperties

Reading field p

Reading field U

Reading/calculating face flux field phi

Reading field pB

Reading field B

Calculating face flux phiB


Starting time loop
Time = 0.005

Courant Number mean: 0.000125 max: 0.0125
smoothSolver:  Solving for Ux, Initial residual = 1, Final residual = 7.9542e-06, No Iterations 23
smoothSolver:  Solving for Uy, Initial residual = 0, Final residual = 0, No Iterations 0
DICPCG:  Solving for p, Initial residual = 1, Final residual = 0.0376484, No Iterations 81
time step continuity errors : sum local = 9.41209e-06, global = 1.62659e-07, cumulative = 1.62659e-07
DICPCG:  Solving for p, Initial residual = 0.00450334, Final residual = 0.000178445, No Iterations 80
time step continuity errors : sum local = 9.2211e-06, global = -2.31266e-08, cumulative = 1.39533e-07
DICPCG:  Solving for p, Initial residual = 0.00737488, Final residual = 8.13113e-07, No Iterations 95
time step continuity errors : sum local = 5.47092e-09, global = 5.08311e-11, cumulative = 1.39583e-07
smoothSolver:  Solving for Bx, Initial residual = 1, Final residual = 6.61349e-06, No Iterations 13
smoothSolver:  Solving for By, Initial residual = 1, Final residual = 6.76955e-06, No Iterations 14
DICPCG:  Solving for pB, Initial residual = 1, Final residual = 8.41082e-06, No Iterations 91
magnetic flux divergence error = 6.57272e-11
smoothSolver:  Solving for Bx, Initial residual = 2.3381e-05, Final residual = 5.4484e-06, No Iterations 1
smoothSolver:  Solving for By, Initial residual = 0.00164949, Final residual = 8.53737e-06, No Iterations 5
DICPCG:  Solving for pB, Initial residual = 0.0037604, Final residual = 9.92243e-06, No Iterations 73
magnetic flux divergence error = 1.55031e-10
smoothSolver:  Solving for Bx, Initial residual = 5.43317e-06, Final residual = 5.43317e-06, No Iterations 0
smoothSolver:  Solving for By, Initial residual = 8.47868e-06, Final residual = 8.47868e-06, No Iterations 0
DICPCG:  Solving for pB, Initial residual = 9.92653e-06, Final residual = 9.92653e-06, No Iterations 0
magnetic flux divergence error = 1.55031e-10
Time = 0.01

Courant Number mean: 0.0251164 max: 0.0412332
smoothSolver:  Solving for Ux, Initial residual = 0.523932, Final residual = 9.68407e-06, No Iterations 25
smoothSolver:  Solving for Uy, Initial residual = 0.610843, Final residual = 8.80309e-06, No Iterations 24
DICPCG:  Solving for p, Initial residual = 0.0448454, Final residual = 0.00212063, No Iterations 80
time step continuity errors : sum local = 1.37825e-05, global = -1.48886e-08, cumulative = 1.24695e-07
DICPCG:  Solving for p, Initial residual = 0.00571363, Final residual = 0.000224483, No Iterations 82
time step continuity errors : sum local = 9.73296e-06, global = 1.42404e-07, cumulative = 2.67099e-07
DICPCG:  Solving for p, Initial residual = 0.253176, Final residual = 6.42294e-07, No Iterations 101
time step continuity errors : sum local = 1.33414e-10, global = -2.27349e-13, cumulative = 2.67099e-07
smoothSolver:  Solving for Bx, Initial residual = 0.39694, Final residual = 7.55204e-06, No Iterations 13
smoothSolver:  Solving for By, Initial residual = 0.529144, Final residual = 9.07075e-06, No Iterations 13
DICPCG:  Solving for pB, Initial residual = 0.492943, Final residual = 7.02684e-06, No Iterations 88
magnetic flux divergence error = 1.96863e-10
smoothSolver:  Solving for Bx, Initial residual = 1.83746e-05, Final residual = 6.21256e-06, No Iterations 1
smoothSolver:  Solving for By, Initial residual = 0.00172743, Final residual = 6.1116e-06, No Iterations 6
DICPCG:  Solving for pB, Initial residual = 0.00422591, Final residual = 8.28184e-06, No Iterations 13
magnetic flux divergence error = 3.35245e-10
smoothSolver:  Solving for Bx, Initial residual = 6.23332e-06, Final residual = 6.23332e-06, No Iterations 0
smoothSolver:  Solving for By, Initial residual = 6.18433e-06, Final residual = 6.18433e-06, No Iterations 0
DICPCG:  Solving for pB, Initial residual = 8.27802e-06, Final residual = 8.27802e-06, No Iterations 0
magnetic flux divergence error = 3.35245e-10
Time = 0.015

Courant Number mean: 0.0253732 max: 0.0599737
smoothSolver:  Solving for Ux, Initial residual = 0.0903435, Final residual = 7.04582e-06, No Iterations 18
smoothSolver:  Solving for Uy, Initial residual = 0.215582, Final residual = 8.80661e-06, No Iterations 22
DICPCG:  Solving for p, Initial residual = 0.282781, Final residual = 0.0122134, No Iterations 80
time step continuity errors : sum local = 4.4959e-06, global = 8.87267e-08, cumulative = 3.55826e-07
DICPCG:  Solving for p, Initial residual = 0.0366192, Final residual = 0.00180804, No Iterations 81
time step continuity errors : sum local = 2.86481e-06, global = -7.94717e-08, cumulative = 2.76354e-07
DICPCG:  Solving for p, Initial residual = 0.0381787, Final residual = 8.95321e-07, No Iterations 94
time step continuity errors : sum local = 4.17817e-10, global = -2.54709e-12, cumulative = 2.76351e-07
smoothSolver:  Solving for Bx, Initial residual = 0.19131, Final residual = 5.4808e-06, No Iterations 13
smoothSolver:  Solving for By, Initial residual = 0.221433, Final residual = 4.68971e-06, No Iterations 13
DICPCG:  Solving for pB, Initial residual = 0.221969, Final residual = 8.73469e-06, No Iterations 87
magnetic flux divergence error = 4.35675e-10
smoothSolver:  Solving for Bx, Initial residual = 1.13183e-05, Final residual = 4.30109e-06, No Iterations 1
smoothSolver:  Solving for By, Initial residual = 0.000937365, Final residual = 9.67993e-06, No Iterations 5
DICPCG:  Solving for pB, Initial residual = 0.00206554, Final residual = 8.42404e-06, No Iterations 10
magnetic flux divergence error = 4.99245e-10
smoothSolver:  Solving for Bx, Initial residual = 4.31188e-06, Final residual = 4.31188e-06, No Iterations 0
smoothSolver:  Solving for By, Initial residual = 9.64869e-06, Final residual = 9.64869e-06, No Iterations 0
DICPCG:  Solving for pB, Initial residual = 8.42238e-06, Final residual = 8.42238e-06, No Iterations 0
magnetic flux divergence error = 4.99245e-10
Time = 0.02

Courant Number mean: 0.025427 max: 0.0580062
smoothSolver:  Solving for Ux, Initial residual = 0.0547498, Final residual = 8.06374e-06, No Iterations 17
smoothSolver:  Solving for Uy, Initial residual = 0.112278, Final residual = 6.85131e-06, No Iterations 20
DICPCG:  Solving for p, Initial residual = 0.088912, Final residual = 0.00310856, No Iterations 79
time step continuity errors : sum local = 1.43894e-06, global = 4.45495e-09, cumulative = 2.80806e-07
DICPCG:  Solving for p, Initial residual = 0.0291883, Final residual = 0.00104916, No Iterations 81
time step continuity errors : sum local = 8.5937e-07, global = -1.14925e-08, cumulative = 2.69314e-07
DICPCG:  Solving for p, Initial residual = 0.0117818, Final residual = 7.21379e-07, No Iterations 92
time step continuity errors : sum local = 3.52366e-10, global = -3.05867e-12, cumulative = 2.69311e-07
smoothSolver:  Solving for Bx, Initial residual = 0.139468, Final residual = 9.26407e-06, No Iterations 12
smoothSolver:  Solving for By, Initial residual = 0.137397, Final residual = 7.22905e-06, No Iterations 12
DICPCG:  Solving for pB, Initial residual = 0.139408, Final residual = 8.86213e-06, No Iterations 79
magnetic flux divergence error = 5.90704e-10
smoothSolver:  Solving for Bx, Initial residual = 1.17907e-05, Final residual = 4.89659e-06, No Iterations 1
smoothSolver:  Solving for By, Initial residual = 0.000636655, Final residual = 7.13328e-06, No Iterations 5
DICPCG:  Solving for pB, Initial residual = 0.00137552, Final residual = 8.1608e-06, No Iterations 6
magnetic flux divergence error = 6.04224e-10
smoothSolver:  Solving for Bx, Initial residual = 4.90333e-06, Final residual = 4.90333e-06, No Iterations 0
smoothSolver:  Solving for By, Initial residual = 7.10044e-06, Final residual = 7.10044e-06, No Iterations 0
DICPCG:  Solving for pB, Initial residual = 8.15983e-06, Final residual = 8.15983e-06, No Iterations 0
magnetic flux divergence error = 6.04224e-10
Time = 0.025

Courant Number mean: 0.0254614 max: 0.0570614
smoothSolver:  Solving for Ux, Initial residual = 0.0374296, Final residual = 8.02049e-06, No Iterations 16
smoothSolver:  Solving for Uy, Initial residual = 0.0796114, Final residual = 6.41281e-06, No Iterations 19
DICPCG:  Solving for p, Initial residual = 0.0473659, Final residual = 0.00179235, No Iterations 79
time step continuity errors : sum local = 8.86824e-07, global = -4.98377e-09, cumulative = 2.64327e-07
DICPCG:  Solving for p, Initial residual = 0.0203361, Final residual = 0.000859713, No Iterations 80
time step continuity errors : sum local = 6.77951e-07, global = -1.01431e-08, cumulative = 2.54184e-07
DICPCG:  Solving for p, Initial residual = 0.00552583, Final residual = 8.11133e-07, No Iterations 90
time step continuity errors : sum local = 4.23578e-10, global = -6.66161e-13, cumulative = 2.54183e-07
smoothSolver:  Solving for Bx, Initial residual = 0.107739, Final residual = 7.16292e-06, No Iterations 12
smoothSolver:  Solving for By, Initial residual = 0.0947015, Final residual = 5.33768e-06, No Iterations 12
DICPCG:  Solving for pB, Initial residual = 0.105355, Final residual = 9.74006e-06, No Iterations 48
magnetic flux divergence error = 7.7918e-10
smoothSolver:  Solving for Bx, Initial residual = 8.93844e-06, Final residual = 8.93844e-06, No Iterations 0
smoothSolver:  Solving for By, Initial residual = 0.000461067, Final residual = 5.43606e-06, No Iterations 5
DICPCG:  Solving for pB, Initial residual = 0.00105945, Final residual = 8.2685e-06, No Iterations 10
magnetic flux divergence error = 7.10588e-10
smoothSolver:  Solving for Bx, Initial residual = 8.94255e-06, Final residual = 8.94255e-06, No Iterations 0
smoothSolver:  Solving for By, Initial residual = 5.41925e-06, Final residual = 5.41925e-06, No Iterations 0
DICPCG:  Solving for pB, Initial residual = 8.26928e-06, Final residual = 8.26928e-06, No Iterations 0
magnetic flux divergence error = 7.10588e-10
Time = 0.03

Courant Number mean: 0.0254728 max: 0.0555296
smoothSolver:  Solving for Ux, Initial residual = 0.0270585, Final residual = 7.72145e-06, No Iterations 16
smoothSolver:  Solving for Uy, Initial residual = 0.0620427, Final residual = 6.93318e-06, No Iterations 18
DICPCG:  Solving for p, Initial residual = 0.0333139, Final residual = 0.00153178, No Iterations 80
time step continuity errors : sum local = 8.10735e-07, global = 1.27804e-08, cumulative = 2.66964e-07
DICPCG:  Solving for p, Initial residual = 0.0176238, Final residual = 0.000700628, No Iterations 81
time step continuity errors : sum local = 5.65609e-07, global = -5.04153e-09, cumulative = 2.61922e-07
DICPCG:  Solving for p, Initial residual = 0.00264201, Final residual = 7.4617e-07, No Iterations 90
time step continuity errors : sum local = 4.16025e-10, global = -5.3274e-13, cumulative = 2.61922e-07
smoothSolver:  Solving for Bx, Initial residual = 0.0847089, Final residual = 5.50078e-06, No Iterations 12
smoothSolver:  Solving for By, Initial residual = 0.0664396, Final residual = 8.88794e-06, No Iterations 11
DICPCG:  Solving for pB, Initial residual = 0.0852261, Final residual = 9.62047e-06, No Iterations 69
magnetic flux divergence error = 8.77417e-10
smoothSolver:  Solving for Bx, Initial residual = 6.85685e-06, Final residual = 6.85685e-06, No Iterations 0
smoothSolver:  Solving for By, Initial residual = 0.000337911, Final residual = 9.61362e-06, No Iterations 4
DICPCG:  Solving for pB, Initial residual = 0.000765681, Final residual = 7.22312e-06, No Iterations 10
magnetic flux divergence error = 6.96798e-10
smoothSolver:  Solving for Bx, Initial residual = 6.86015e-06, Final residual = 6.86015e-06, No Iterations 0
smoothSolver:  Solving for By, Initial residual = 9.58022e-06, Final residual = 9.58022e-06, No Iterations 0
DICPCG:  Solving for pB, Initial residual = 7.22403e-06, Final residual = 7.22403e-06, No Iterations 0
magnetic flux divergence error = 6.96798e-10
Time = 0.035

Courant Number mean: 0.0254618 max: 0.053748
smoothSolver:  Solving for Ux, Initial residual = 0.0282448, Final residual = 6.69842e-06, No Iterations 17
smoothSolver:  Solving for Uy, Initial residual = 0.0529895, Final residual = 7.0378e-06, No Iterations 17
DICPCG:  Solving for p, Initial residual = 0.0280852, Final residual = 0.00114424, No Iterations 79
time step continuity errors : sum local = 6.46081e-07, global = -1.77773e-09, cumulative = 2.60144e-07
DICPCG:  Solving for p, Initial residual = 0.0151948, Final residual = 0.000755154, No Iterations 79
time step continuity errors : sum local = 6.38727e-07, global = -2.65447e-09, cumulative = 2.57489e-07
DICPCG:  Solving for p, Initial residual = 0.0025447, Final residual = 8.43119e-07, No Iterations 90
time step continuity errors : sum local = 5.00548e-10, global = 3.65948e-12, cumulative = 2.57493e-07
smoothSolver:  Solving for Bx, Initial residual = 0.0659143, Final residual = 9.22246e-06, No Iterations 11
smoothSolver:  Solving for By, Initial residual = 0.0460196, Final residual = 6.64113e-06, No Iterations 11
DICPCG:  Solving for pB, Initial residual = 0.0677607, Final residual = 9.26568e-06, No Iterations 63
magnetic flux divergence error = 9.42596e-10
smoothSolver:  Solving for Bx, Initial residual = 9.53662e-06, Final residual = 9.53662e-06, No Iterations 0
smoothSolver:  Solving for By, Initial residual = 0.000245246, Final residual = 6.99702e-06, No Iterations 4
DICPCG:  Solving for pB, Initial residual = 0.000545111, Final residual = 8.9225e-06, No Iterations 9
magnetic flux divergence error = 9.5461e-10
smoothSolver:  Solving for Bx, Initial residual = 9.53926e-06, Final residual = 9.53926e-06, No Iterations 0
smoothSolver:  Solving for By, Initial residual = 6.9682e-06, Final residual = 6.9682e-06, No Iterations 0
DICPCG:  Solving for pB, Initial residual = 8.92409e-06, Final residual = 8.92409e-06, No Iterations 0
magnetic flux divergence error = 9.5461e-10
Time = 0.04

Courant Number mean: 0.0254316 max: 0.0519434
smoothSolver:  Solving for Ux, Initial residual = 0.0357455, Final residual = 9.04692e-06, No Iterations 17
smoothSolver:  Solving for Uy, Initial residual = 0.0646979, Final residual = 9.64114e-06, No Iterations 18
DICPCG:  Solving for p, Initial residual = 0.0247667, Final residual = 0.00106139, No Iterations 81
time step continuity errors : sum local = 6.37816e-07, global = 7.83266e-09, cumulative = 2.65326e-07
DICPCG:  Solving for p, Initial residual = 0.0136422, Final residual = 0.000605312, No Iterations 81
time step continuity errors : sum local = 5.39502e-07, global = -6.3338e-09, cumulative = 2.58992e-07
DICPCG:  Solving for p, Initial residual = 0.00189513, Final residual = 7.35552e-07, No Iterations 88
time step continuity errors : sum local = 4.64282e-10, global = -1.05517e-11, cumulative = 2.58981e-07
smoothSolver:  Solving for Bx, Initial residual = 0.0500325, Final residual = 6.76055e-06, No Iterations 11
smoothSolver:  Solving for By, Initial residual = 0.030972, Final residual = 5.11279e-06, No Iterations 11
DICPCG:  Solving for pB, Initial residual = 0.0521799, Final residual = 8.67714e-06, No Iterations 64
magnetic flux divergence error = 9.69046e-10
smoothSolver:  Solving for Bx, Initial residual = 7.14612e-06, Final residual = 7.14612e-06, No Iterations 0
smoothSolver:  Solving for By, Initial residual = 0.000173673, Final residual = 4.90796e-06, No Iterations 4
DICPCG:  Solving for pB, Initial residual = 0.000375386, Final residual = 6.13979e-06, No Iterations 9
magnetic flux divergence error = 7.14478e-10
smoothSolver:  Solving for Bx, Initial residual = 7.14772e-06, Final residual = 7.14772e-06, No Iterations 0
smoothSolver:  Solving for By, Initial residual = 4.8848e-06, Final residual = 4.8848e-06, No Iterations 0
DICPCG:  Solving for pB, Initial residual = 6.141e-06, Final residual = 6.141e-06, No Iterations 0
magnetic flux divergence error = 7.14478e-10
Time = 0.045

Courant Number mean: 0.0253883 max: 0.050407
smoothSolver:  Solving for Ux, Initial residual = 0.0422217, Final residual = 6.91483e-06, No Iterations 18
smoothSolver:  Solving for Uy, Initial residual = 0.0751682, Final residual = 9.82241e-06, No Iterations 18
DICPCG:  Solving for p, Initial residual = 0.0202083, Final residual = 0.000837734, No Iterations 79
time step continuity errors : sum local = 5.346e-07, global = -6.28578e-10, cumulative = 2.58353e-07
DICPCG:  Solving for p, Initial residual = 0.0106542, Final residual = 0.000501554, No Iterations 80
time step continuity errors : sum local = 4.69546e-07, global = -6.25755e-09, cumulative = 2.52095e-07
DICPCG:  Solving for p, Initial residual = 0.0015395, Final residual = 7.84569e-07, No Iterations 88
time step continuity errors : sum local = 5.26039e-10, global = -7.2906e-13, cumulative = 2.52095e-07
smoothSolver:  Solving for Bx, Initial residual = 0.0367268, Final residual = 4.76165e-06, No Iterations 11
smoothSolver:  Solving for By, Initial residual = 0.0235694, Final residual = 9.41915e-06, No Iterations 10
DICPCG:  Solving for pB, Initial residual = 0.0396164, Final residual = 9.64254e-06, No Iterations 43
magnetic flux divergence error = 1.15678e-09
smoothSolver:  Solving for Bx, Initial residual = 5.19023e-06, Final residual = 5.19023e-06, No Iterations 0
smoothSolver:  Solving for By, Initial residual = 0.000120503, Final residual = 8.0592e-06, No Iterations 3
DICPCG:  Solving for pB, Initial residual = 0.000250825, Final residual = 8.98161e-06, No Iterations 8
magnetic flux divergence error = 1.10987e-09
smoothSolver:  Solving for Bx, Initial residual = 5.19113e-06, Final residual = 5.19113e-06, No Iterations 0
smoothSolver:  Solving for By, Initial residual = 8.04115e-06, Final residual = 8.04115e-06, No Iterations 0
DICPCG:  Solving for pB, Initial residual = 8.98281e-06, Final residual = 8.98281e-06, No Iterations 0
magnetic flux divergence error = 1.10987e-09
Time = 0.05

Courant Number mean: 0.0253389 max: 0.0491155
smoothSolver:  Solving for Ux, Initial residual = 0.0450098, Final residual = 7.43784e-06, No Iterations 18
smoothSolver:  Solving for Uy, Initial residual = 0.0893722, Final residual = 8.35434e-06, No Iterations 19
DICPCG:  Solving for p, Initial residual = 0.0161057, Final residual = 0.000701513, No Iterations 81
time step continuity errors : sum local = 4.74624e-07, global = 6.30631e-09, cumulative = 2.58401e-07
DICPCG:  Solving for p, Initial residual = 0.00850222, Final residual = 0.000422346, No Iterations 81
time step continuity errors : sum local = 4.12249e-07, global = -5.21019e-09, cumulative = 2.53191e-07
DICPCG:  Solving for p, Initial residual = 0.00147286, Final residual = 9.9664e-07, No Iterations 88
time step continuity errors : sum local = 7.0804e-10, global = -5.02051e-12, cumulative = 2.53186e-07
smoothSolver:  Solving for Bx, Initial residual = 0.0258598, Final residual = 7.05729e-06, No Iterations 10
smoothSolver:  Solving for By, Initial residual = 0.02179, Final residual = 8.13326e-06, No Iterations 10
DICPCG:  Solving for pB, Initial residual = 0.0322142, Final residual = 9.96391e-06, No Iterations 56
magnetic flux divergence error = 1.25527e-09
smoothSolver:  Solving for Bx, Initial residual = 7.24619e-06, Final residual = 7.24619e-06, No Iterations 0
smoothSolver:  Solving for By, Initial residual = 8.31365e-05, Final residual = 5.43228e-06, No Iterations 3
DICPCG:  Solving for pB, Initial residual = 0.000185, Final residual = 9.10707e-06, No Iterations 6
magnetic flux divergence error = 1.16933e-09
smoothSolver:  Solving for Bx, Initial residual = 7.24646e-06, Final residual = 7.24646e-06, No Iterations 0
smoothSolver:  Solving for By, Initial residual = 5.41868e-06, Final residual = 5.41868e-06, No Iterations 0
DICPCG:  Solving for pB, Initial residual = 9.10793e-06, Final residual = 9.10793e-06, No Iterations 0
magnetic flux divergence error = 1.16933e-09
Time = 0.055

Courant Number mean: 0.0252919 max: 0.048176
smoothSolver:  Solving for Ux, Initial residual = 0.0428047, Final residual = 7.14479e-06, No Iterations 18
smoothSolver:  Solving for Uy, Initial residual = 0.0993993, Final residual = 8.98559e-06, No Iterations 19
DICPCG:  Solving for p, Initial residual = 0.0136927, Final residual = 0.000568608, No Iterations 79
time step continuity errors : sum local = 4.07088e-07, global = 9.54645e-10, cumulative = 2.5414e-07
DICPCG:  Solving for p, Initial residual = 0.00717132, Final residual = 0.000310208, No Iterations 81
time step continuity errors : sum local = 3.12401e-07, global = -4.17482e-09, cumulative = 2.49965e-07
DICPCG:  Solving for p, Initial residual = 0.00106401, Final residual = 6.82777e-07, No Iterations 89
time step continuity errors : sum local = 5.1176e-10, global = 3.76179e-12, cumulative = 2.49969e-07
smoothSolver:  Solving for Bx, Initial residual = 0.0172621, Final residual = 9.59392e-06, No Iterations 9
smoothSolver:  Solving for By, Initial residual = 0.0203975, Final residual = 7.09195e-06, No Iterations 10
DICPCG:  Solving for pB, Initial residual = 0.0287746, Final residual = 8.76595e-06, No Iterations 58
magnetic flux divergence error = 1.13671e-09
smoothSolver:  Solving for Bx, Initial residual = 9.65213e-06, Final residual = 9.65213e-06, No Iterations 0
smoothSolver:  Solving for By, Initial residual = 5.8443e-05, Final residual = 9.01669e-06, No Iterations 2
DICPCG:  Solving for pB, Initial residual = 0.000134072, Final residual = 9.35952e-06, No Iterations 5
magnetic flux divergence error = 1.22566e-09
smoothSolver:  Solving for Bx, Initial residual = 9.65221e-06, Final residual = 9.65221e-06, No Iterations 0
smoothSolver:  Solving for By, Initial residual = 9.00238e-06, Final residual = 9.00238e-06, No Iterations 0
DICPCG:  Solving for pB, Initial residual = 9.36012e-06, Final residual = 9.36012e-06, No Iterations 0
magnetic flux divergence error = 1.22566e-09
Time = 0.06

Courant Number mean: 0.0252534 max: 0.0473244
smoothSolver:  Solving for Ux, Initial residual = 0.0364664, Final residual = 9.70501e-06, No Iterations 17
smoothSolver:  Solving for Uy, Initial residual = 0.101317, Final residual = 9.30707e-06, No Iterations 19
DICPCG:  Solving for p, Initial residual = 0.0133162, Final residual = 0.000418042, No Iterations 79
time step continuity errors : sum local = 3.15703e-07, global = 7.49248e-10, cumulative = 2.50718e-07
DICPCG:  Solving for p, Initial residual = 0.00708573, Final residual = 0.000319569, No Iterations 80
time step continuity errors : sum local = 3.28004e-07, global = -6.52207e-09, cumulative = 2.44196e-07
DICPCG:  Solving for p, Initial residual = 0.00109007, Final residual = 9.57987e-07, No Iterations 88
time step continuity errors : sum local = 7.53205e-10, global = 2.72735e-13, cumulative = 2.44197e-07
smoothSolver:  Solving for Bx, Initial residual = 0.0141677, Final residual = 5.48076e-06, No Iterations 9
smoothSolver:  Solving for By, Initial residual = 0.0194217, Final residual = 6.25809e-06, No Iterations 10
DICPCG:  Solving for pB, Initial residual = 0.0279732, Final residual = 9.89836e-06, No Iterations 51
magnetic flux divergence error = 1.29875e-09
smoothSolver:  Solving for Bx, Initial residual = 5.68313e-06, Final residual = 5.68313e-06, No Iterations 0
smoothSolver:  Solving for By, Initial residual = 4.25987e-05, Final residual = 6.25016e-06, No Iterations 2
DICPCG:  Solving for pB, Initial residual = 0.000116397, Final residual = 9.85848e-06, No Iterations 4
magnetic flux divergence error = 1.29605e-09
smoothSolver:  Solving for Bx, Initial residual = 5.68315e-06, Final residual = 5.68315e-06, No Iterations 0
smoothSolver:  Solving for By, Initial residual = 6.23483e-06, Final residual = 6.23483e-06, No Iterations 0
DICPCG:  Solving for pB, Initial residual = 9.85901e-06, Final residual = 9.85901e-06, No Iterations 0
magnetic flux divergence error = 1.29605e-09
Time = 0.065

Courant Number mean: 0.0252258 max: 0.0465894
smoothSolver:  Solving for Ux, Initial residual = 0.0286195, Final residual = 7.70155e-06, No Iterations 17
smoothSolver:  Solving for Uy, Initial residual = 0.0981902, Final residual = 8.95763e-06, No Iterations 19
DICPCG:  Solving for p, Initial residual = 0.0129051, Final residual = 0.000608134, No Iterations 79
time step continuity errors : sum local = 4.81614e-07, global = 7.46358e-09, cumulative = 2.5166e-07
DICPCG:  Solving for p, Initial residual = 0.00701585, Final residual = 0.000249688, No Iterations 81
time step continuity errors : sum local = 2.57787e-07, global = -4.04879e-09, cumulative = 2.47611e-07
DICPCG:  Solving for p, Initial residual = 0.000900909, Final residual = 8.74013e-07, No Iterations 87
time step continuity errors : sum local = 7.15975e-10, global = -3.01515e-12, cumulative = 2.47608e-07
smoothSolver:  Solving for Bx, Initial residual = 0.0130381, Final residual = 9.98929e-06, No Iterations 8
smoothSolver:  Solving for By, Initial residual = 0.0187449, Final residual = 5.60004e-06, No Iterations 10
DICPCG:  Solving for pB, Initial residual = 0.0292543, Final residual = 8.86007e-06, No Iterations 51
magnetic flux divergence error = 1.1594e-09
smoothSolver:  Solving for Bx, Initial residual = 1.00846e-05, Final residual = 4.18258e-06, No Iterations 1
smoothSolver:  Solving for By, Initial residual = 3.23984e-05, Final residual = 4.55085e-06, No Iterations 2
DICPCG:  Solving for pB, Initial residual = 9.78827e-05, Final residual = 7.24865e-06, No Iterations 3
magnetic flux divergence error = 9.44156e-10
smoothSolver:  Solving for Bx, Initial residual = 4.18261e-06, Final residual = 4.18261e-06, No Iterations 0
smoothSolver:  Solving for By, Initial residual = 4.55781e-06, Final residual = 4.55781e-06, No Iterations 0
DICPCG:  Solving for pB, Initial residual = 7.24882e-06, Final residual = 7.24882e-06, No Iterations 0
magnetic flux divergence error = 9.44156e-10
Time = 0.07

Courant Number mean: 0.025208 max: 0.0461149
smoothSolver:  Solving for Ux, Initial residual = 0.0208786, Final residual = 8.7854e-06, No Iterations 16
smoothSolver:  Solving for Uy, Initial residual = 0.0872416, Final residual = 7.3715e-06, No Iterations 19
DICPCG:  Solving for p, Initial residual = 0.0121194, Final residual = 0.000510128, No Iterations 78
time step continuity errors : sum local = 4.20612e-07, global = -6.42674e-09, cumulative = 2.41182e-07
DICPCG:  Solving for p, Initial residual = 0.00678512, Final residual = 0.000314338, No Iterations 78
time step continuity errors : sum local = 3.22304e-07, global = 3.27572e-09, cumulative = 2.44457e-07
DICPCG:  Solving for p, Initial residual = 0.0010338, Final residual = 7.42262e-07, No Iterations 88
time step continuity errors : sum local = 6.28706e-10, global = 9.55108e-13, cumulative = 2.44458e-07
smoothSolver:  Solving for Bx, Initial residual = 0.0114411, Final residual = 8.63963e-06, No Iterations 8
smoothSolver:  Solving for By, Initial residual = 0.0177653, Final residual = 5.05667e-06, No Iterations 10
DICPCG:  Solving for pB, Initial residual = 0.0316747, Final residual = 9.2511e-06, No Iterations 52
magnetic flux divergence error = 1.19315e-09
smoothSolver:  Solving for Bx, Initial residual = 8.80541e-06, Final residual = 8.80541e-06, No Iterations 0
smoothSolver:  Solving for By, Initial residual = 2.53868e-05, Final residual = 9.25231e-06, No Iterations 1
DICPCG:  Solving for pB, Initial residual = 7.19506e-05, Final residual = 9.02152e-06, No Iterations 2
magnetic flux divergence error = 1.15199e-09
smoothSolver:  Solving for Bx, Initial residual = 8.80549e-06, Final residual = 8.80549e-06, No Iterations 0
smoothSolver:  Solving for By, Initial residual = 9.2471e-06, Final residual = 9.2471e-06, No Iterations 0
DICPCG:  Solving for pB, Initial residual = 9.0218e-06, Final residual = 9.0218e-06, No Iterations 0
magnetic flux divergence error = 1.15199e-09
Time = 0.075

Courant Number mean: 0.0251947 max: 0.0457046
smoothSolver:  Solving for Ux, Initial residual = 0.0143637, Final residual = 9.14533e-06, No Iterations 15
smoothSolver:  Solving for Uy, Initial residual = 0.0733038, Final residual = 9.53475e-06, No Iterations 18
DICPCG:  Solving for p, Initial residual = 0.0105626, Final residual = 0.000461461, No Iterations 80
time step continuity errors : sum local = 3.92962e-07, global = 7.68755e-09, cumulative = 2.52146e-07
DICPCG:  Solving for p, Initial residual = 0.00619594, Final residual = 0.000208395, No Iterations 81
time step continuity errors : sum local = 2.09999e-07, global = -1.88008e-09, cumulative = 2.50266e-07
DICPCG:  Solving for p, Initial residual = 0.00070455, Final residual = 8.47906e-07, No Iterations 86
time step continuity errors : sum local = 7.36784e-10, global = -2.36021e-12, cumulative = 2.50263e-07
smoothSolver:  Solving for Bx, Initial residual = 0.00931085, Final residual = 7.28266e-06, No Iterations 8
smoothSolver:  Solving for By, Initial residual = 0.0162939, Final residual = 4.5806e-06, No Iterations 10
DICPCG:  Solving for pB, Initial residual = 0.0343895, Final residual = 9.00552e-06, No Iterations 52
magnetic flux divergence error = 1.13417e-09
smoothSolver:  Solving for Bx, Initial residual = 7.48539e-06, Final residual = 7.48539e-06, No Iterations 0
smoothSolver:  Solving for By, Initial residual = 2.03038e-05, Final residual = 7.30104e-06, No Iterations 1
DICPCG:  Solving for pB, Initial residual = 6.52879e-05, Final residual = 7.89868e-06, No Iterations 2
magnetic flux divergence error = 9.80936e-10
smoothSolver:  Solving for Bx, Initial residual = 7.48547e-06, Final residual = 7.48547e-06, No Iterations 0
smoothSolver:  Solving for By, Initial residual = 7.2988e-06, Final residual = 7.2988e-06, No Iterations 0
DICPCG:  Solving for pB, Initial residual = 7.89891e-06, Final residual = 7.89891e-06, No Iterations 0
magnetic flux divergence error = 9.80936e-10
Time = 0.08

Courant Number mean: 0.0251842 max: 0.0453602
smoothSolver:  Solving for Ux, Initial residual = 0.00922797, Final residual = 8.81676e-06, No Iterations 14
smoothSolver:  Solving for Uy, Initial residual = 0.0543685, Final residual = 9.69481e-06, No Iterations 17
DICPCG:  Solving for p, Initial residual = 0.00835725, Final residual = 0.000389713, No Iterations 78
time step continuity errors : sum local = 3.40054e-07, global = -4.31803e-09, cumulative = 2.45945e-07
DICPCG:  Solving for p, Initial residual = 0.00518191, Final residual = 0.000184585, No Iterations 79
time step continuity errors : sum local = 1.81571e-07, global = -1.81498e-09, cumulative = 2.4413e-07
DICPCG:  Solving for p, Initial residual = 0.000566002, Final residual = 6.98254e-07, No Iterations 86
time step continuity errors : sum local = 6.1775e-10, global = 1.32651e-12, cumulative = 2.44132e-07
smoothSolver:  Solving for Bx, Initial residual = 0.00694687, Final residual = 5.84521e-06, No Iterations 8
smoothSolver:  Solving for By, Initial residual = 0.0144372, Final residual = 9.28477e-06, No Iterations 9
DICPCG:  Solving for pB, Initial residual = 0.0359835, Final residual = 9.81323e-06, No Iterations 53
magnetic flux divergence error = 1.19977e-09
smoothSolver:  Solving for Bx, Initial residual = 6.05453e-06, Final residual = 6.05453e-06, No Iterations 0
smoothSolver:  Solving for By, Initial residual = 1.939e-05, Final residual = 7.28259e-06, No Iterations 1
DICPCG:  Solving for pB, Initial residual = 6.50918e-05, Final residual = 9.8696e-06, No Iterations 2
magnetic flux divergence error = 1.18762e-09
smoothSolver:  Solving for Bx, Initial residual = 6.05454e-06, Final residual = 6.05454e-06, No Iterations 0
smoothSolver:  Solving for By, Initial residual = 7.28114e-06, Final residual = 7.28114e-06, No Iterations 0
DICPCG:  Solving for pB, Initial residual = 9.86993e-06, Final residual = 9.86993e-06, No Iterations 0
magnetic flux divergence error = 1.18762e-09
Time = 0.085

Courant Number mean: 0.0251761 max: 0.04508
smoothSolver:  Solving for Ux, Initial residual = 0.00731586, Final residual = 7.2911e-06, No Iterations 13
smoothSolver:  Solving for Uy, Initial residual = 0.0401542, Final residual = 7.22134e-06, No Iterations 17
DICPCG:  Solving for p, Initial residual = 0.00617744, Final residual = 0.000304095, No Iterations 80
time step continuity errors : sum local = 2.69772e-07, global = 4.97792e-09, cumulative = 2.4911e-07
DICPCG:  Solving for p, Initial residual = 0.00394751, Final residual = 0.000151647, No Iterations 81
time step continuity errors : sum local = 1.4513e-07, global = -9.67857e-10, cumulative = 2.48142e-07
DICPCG:  Solving for p, Initial residual = 0.000446518, Final residual = 7.98779e-07, No Iterations 85
time step continuity errors : sum local = 7.14727e-10, global = 7.87496e-12, cumulative = 2.4815e-07
smoothSolver:  Solving for Bx, Initial residual = 0.00467645, Final residual = 4.4114e-06, No Iterations 8
smoothSolver:  Solving for By, Initial residual = 0.0125597, Final residual = 8.63897e-06, No Iterations 9
DICPCG:  Solving for pB, Initial residual = 0.0362943, Final residual = 9.89391e-06, No Iterations 53
magnetic flux divergence error = 1.17136e-09
smoothSolver:  Solving for Bx, Initial residual = 4.60775e-06, Final residual = 4.60775e-06, No Iterations 0
smoothSolver:  Solving for By, Initial residual = 1.63954e-05, Final residual = 6.15538e-06, No Iterations 1
DICPCG:  Solving for pB, Initial residual = 5.85773e-05, Final residual = 9.4606e-06, No Iterations 2
magnetic flux divergence error = 1.10172e-09
smoothSolver:  Solving for Bx, Initial residual = 4.60778e-06, Final residual = 4.60778e-06, No Iterations 0
smoothSolver:  Solving for By, Initial residual = 6.15525e-06, Final residual = 6.15525e-06, No Iterations 0
DICPCG:  Solving for pB, Initial residual = 9.46089e-06, Final residual = 9.46089e-06, No Iterations 0
magnetic flux divergence error = 1.10172e-09
Time = 0.09

Courant Number mean: 0.02517 max: 0.0448596
smoothSolver:  Solving for Ux, Initial residual = 0.00656519, Final residual = 7.55235e-06, No Iterations 13
smoothSolver:  Solving for Uy, Initial residual = 0.0279539, Final residual = 6.76633e-06, No Iterations 16
DICPCG:  Solving for p, Initial residual = 0.0040481, Final residual = 0.000123009, No Iterations 79
time step continuity errors : sum local = 1.10233e-07, global = 2.91742e-10, cumulative = 2.48441e-07
DICPCG:  Solving for p, Initial residual = 0.0027537, Final residual = 0.000122843, No Iterations 79
time step continuity errors : sum local = 1.14475e-07, global = -1.20202e-09, cumulative = 2.47239e-07
DICPCG:  Solving for p, Initial residual = 0.000347367, Final residual = 9.07087e-07, No Iterations 85
time step continuity errors : sum local = 8.16335e-10, global = 1.2818e-11, cumulative = 2.47252e-07
smoothSolver:  Solving for Bx, Initial residual = 0.00274523, Final residual = 7.10262e-06, No Iterations 7
smoothSolver:  Solving for By, Initial residual = 0.0111284, Final residual = 8.15508e-06, No Iterations 9
DICPCG:  Solving for pB, Initial residual = 0.0358183, Final residual = 9.22058e-06, No Iterations 68
magnetic flux divergence error = 1.0563e-09
smoothSolver:  Solving for Bx, Initial residual = 7.20808e-06, Final residual = 7.20808e-06, No Iterations 0
smoothSolver:  Solving for By, Initial residual = 1.42886e-05, Final residual = 5.38427e-06, No Iterations 1
DICPCG:  Solving for pB, Initial residual = 5.20002e-05, Final residual = 8.72833e-06, No Iterations 2
magnetic flux divergence error = 9.83384e-10
smoothSolver:  Solving for Bx, Initial residual = 7.20806e-06, Final residual = 7.20806e-06, No Iterations 0
smoothSolver:  Solving for By, Initial residual = 5.38494e-06, Final residual = 5.38494e-06, No Iterations 0
DICPCG:  Solving for pB, Initial residual = 8.72858e-06, Final residual = 8.72858e-06, No Iterations 0
magnetic flux divergence error = 9.83384e-10
Time = 0.095

Courant Number mean: 0.0251653 max: 0.0446898
smoothSolver:  Solving for Ux, Initial residual = 0.00572976, Final residual = 8.27854e-06, No Iterations 13
smoothSolver:  Solving for Uy, Initial residual = 0.0221142, Final residual = 8.87985e-06, No Iterations 16
DICPCG:  Solving for p, Initial residual = 0.00250502, Final residual = 0.000112844, No Iterations 81
time step continuity errors : sum local = 1.01612e-07, global = 1.14816e-09, cumulative = 2.484e-07
DICPCG:  Solving for p, Initial residual = 0.00187703, Final residual = 8.60695e-05, No Iterations 81
time step continuity errors : sum local = 7.83816e-08, global = -7.11585e-10, cumulative = 2.47689e-07
DICPCG:  Solving for p, Initial residual = 0.000240703, Final residual = 6.4749e-07, No Iterations 85
time step continuity errors : sum local = 5.83698e-10, global = 7.64118e-12, cumulative = 2.47696e-07
smoothSolver:  Solving for Bx, Initial residual = 0.00133704, Final residual = 4.55671e-06, No Iterations 7
smoothSolver:  Solving for By, Initial residual = 0.010182, Final residual = 7.76009e-06, No Iterations 9
DICPCG:  Solving for pB, Initial residual = 0.0347752, Final residual = 9.90633e-06, No Iterations 47
magnetic flux divergence error = 1.0985e-09
smoothSolver:  Solving for Bx, Initial residual = 4.6223e-06, Final residual = 4.6223e-06, No Iterations 0
smoothSolver:  Solving for By, Initial residual = 1.27634e-05, Final residual = 4.84498e-06, No Iterations 1
DICPCG:  Solving for pB, Initial residual = 4.76849e-05, Final residual = 9.60665e-06, No Iterations 2
magnetic flux divergence error = 1.0482e-09
smoothSolver:  Solving for Bx, Initial residual = 4.62232e-06, Final residual = 4.62232e-06, No Iterations 0
smoothSolver:  Solving for By, Initial residual = 4.84473e-06, Final residual = 4.84473e-06, No Iterations 0
DICPCG:  Solving for pB, Initial residual = 9.6069e-06, Final residual = 9.6069e-06, No Iterations 0
magnetic flux divergence error = 1.0482e-09
Time = 0.1

Courant Number mean: 0.0251618 max: 0.0445618
smoothSolver:  Solving for Ux, Initial residual = 0.0047512, Final residual = 7.84975e-06, No Iterations 13
smoothSolver:  Solving for Uy, Initial residual = 0.0159056, Final residual = 6.52913e-06, No Iterations 16
DICPCG:  Solving for p, Initial residual = 0.00159912, Final residual = 5.46639e-05, No Iterations 79
time step continuity errors : sum local = 4.92748e-08, global = -1.96721e-10, cumulative = 2.475e-07
DICPCG:  Solving for p, Initial residual = 0.00122948, Final residual = 5.85035e-05, No Iterations 79
time step continuity errors : sum local = 5.23527e-08, global = -4.64609e-10, cumulative = 2.47035e-07
DICPCG:  Solving for p, Initial residual = 0.000169109, Final residual = 9.73515e-07, No Iterations 84
time step continuity errors : sum local = 8.76729e-10, global = 1.91648e-11, cumulative = 2.47054e-07
smoothSolver:  Solving for Bx, Initial residual = 0.00113412, Final residual = 6.33286e-06, No Iterations 6
smoothSolver:  Solving for By, Initial residual = 0.00939195, Final residual = 7.42546e-06, No Iterations 9
DICPCG:  Solving for pB, Initial residual = 0.0330255, Final residual = 9.9288e-06, No Iterations 53
magnetic flux divergence error = 1.0713e-09
smoothSolver:  Solving for Bx, Initial residual = 6.33382e-06, Final residual = 6.33382e-06, No Iterations 0
smoothSolver:  Solving for By, Initial residual = 1.15428e-05, Final residual = 4.42665e-06, No Iterations 1
DICPCG:  Solving for pB, Initial residual = 4.40457e-05, Final residual = 9.86927e-06, No Iterations 2
magnetic flux divergence error = 1.05292e-09
smoothSolver:  Solving for Bx, Initial residual = 6.33378e-06, Final residual = 6.33378e-06, No Iterations 0
smoothSolver:  Solving for By, Initial residual = 4.42672e-06, Final residual = 4.42672e-06, No Iterations 0
DICPCG:  Solving for pB, Initial residual = 9.86946e-06, Final residual = 9.86946e-06, No Iterations 0
magnetic flux divergence error = 1.05292e-09
Time = 0.105

Courant Number mean: 0.0251591 max: 0.044465
smoothSolver:  Solving for Ux, Initial residual = 0.0039123, Final residual = 6.51924e-06, No Iterations 13
smoothSolver:  Solving for Uy, Initial residual = 0.0159145, Final residual = 7.61556e-06, No Iterations 16
DICPCG:  Solving for p, Initial residual = 0.00136794, Final residual = 6.31649e-05, No Iterations 81
time step continuity errors : sum local = 5.68651e-08, global = 1.04744e-09, cumulative = 2.48102e-07
DICPCG:  Solving for p, Initial residual = 0.00104762, Final residual = 4.83381e-05, No Iterations 81
time step continuity errors : sum local = 4.27668e-08, global = -7.28134e-10, cumulative = 2.47374e-07
DICPCG:  Solving for p, Initial residual = 0.000142398, Final residual = 8.95925e-07, No Iterations 84
time step continuity errors : sum local = 8.0493e-10, global = 1.52888e-11, cumulative = 2.47389e-07
smoothSolver:  Solving for Bx, Initial residual = 0.00144615, Final residual = 7.01222e-06, No Iterations 6
smoothSolver:  Solving for By, Initial residual = 0.00875846, Final residual = 7.1302e-06, No Iterations 9
DICPCG:  Solving for pB, Initial residual = 0.0310438, Final residual = 9.9302e-06, No Iterations 54
magnetic flux divergence error = 1.04974e-09
smoothSolver:  Solving for Bx, Initial residual = 7.01618e-06, Final residual = 7.01618e-06, No Iterations 0
smoothSolver:  Solving for By, Initial residual = 1.06234e-05, Final residual = 4.09415e-06, No Iterations 1
DICPCG:  Solving for pB, Initial residual = 4.17842e-05, Final residual = 9.77205e-06, No Iterations 3
magnetic flux divergence error = 1.0235e-09
smoothSolver:  Solving for Bx, Initial residual = 7.01605e-06, Final residual = 7.01605e-06, No Iterations 0
smoothSolver:  Solving for By, Initial residual = 4.09399e-06, Final residual = 4.09399e-06, No Iterations 0
DICPCG:  Solving for pB, Initial residual = 9.77222e-06, Final residual = 9.77222e-06, No Iterations 0
magnetic flux divergence error = 1.0235e-09
Time = 0.11

Courant Number mean: 0.025157 max: 0.0443909
smoothSolver:  Solving for Ux, Initial residual = 0.00291852, Final residual = 7.58918e-06, No Iterations 12
smoothSolver:  Solving for Uy, Initial residual = 0.0147579, Final residual = 9.96145e-06, No Iterations 15
DICPCG:  Solving for p, Initial residual = 0.00138923, Final residual = 6.8737e-05, No Iterations 74
time step continuity errors : sum local = 6.17224e-08, global = 2.62605e-09, cumulative = 2.50015e-07
DICPCG:  Solving for p, Initial residual = 0.00103635, Final residual = 3.50469e-05, No Iterations 79
time step continuity errors : sum local = 3.08376e-08, global = -1.47947e-10, cumulative = 2.49867e-07
DICPCG:  Solving for p, Initial residual = 0.000111101, Final residual = 7.61431e-07, No Iterations 83
time step continuity errors : sum local = 6.82152e-10, global = -2.55956e-12, cumulative = 2.49864e-07
smoothSolver:  Solving for Bx, Initial residual = 0.00155609, Final residual = 7.68226e-06, No Iterations 6
smoothSolver:  Solving for By, Initial residual = 0.00823421, Final residual = 6.8593e-06, No Iterations 9
DICPCG:  Solving for pB, Initial residual = 0.0290442, Final residual = 9.84204e-06, No Iterations 35
magnetic flux divergence error = 1.02365e-09
smoothSolver:  Solving for Bx, Initial residual = 7.68743e-06, Final residual = 7.68743e-06, No Iterations 0
smoothSolver:  Solving for By, Initial residual = 9.83381e-06, Final residual = 9.83381e-06, No Iterations 0
DICPCG:  Solving for pB, Initial residual = 9.91144e-06, Final residual = 9.91144e-06, No Iterations 0
magnetic flux divergence error = 1.02365e-09
smoothSolver:  Solving for Bx, Initial residual = 7.68743e-06, Final residual = 7.68743e-06, No Iterations 0
smoothSolver:  Solving for By, Initial residual = 9.83381e-06, Final residual = 9.83381e-06, No Iterations 0
DICPCG:  Solving for pB, Initial residual = 9.91144e-06, Final residual = 9.91144e-06, No Iterations 0
magnetic flux divergence error = 1.02365e-09
Time = 0.115

Courant Number mean: 0.0251559 max: 0.0443318
smoothSolver:  Solving for Ux, Initial residual = 0.00192027, Final residual = 7.45056e-06, No Iterations 11
smoothSolver:  Solving for Uy, Initial residual = 0.0132262, Final residual = 7.7142e-06, No Iterations 15
DICPCG:  Solving for p, Initial residual = 0.00137954, Final residual = 5.39307e-05, No Iterations 74
time step continuity errors : sum local = 4.82924e-08, global = 4.75279e-10, cumulative = 2.5034e-07
DICPCG:  Solving for p, Initial residual = 0.00101101, Final residual = 4.36368e-05, No Iterations 79
time step continuity errors : sum local = 3.83572e-08, global = -3.2801e-10, cumulative = 2.50012e-07
DICPCG:  Solving for p, Initial residual = 0.000113507, Final residual = 7.12635e-07, No Iterations 83
time step continuity errors : sum local = 6.36782e-10, global = -8.3101e-12, cumulative = 2.50003e-07
smoothSolver:  Solving for Bx, Initial residual = 0.00145531, Final residual = 7.6021e-06, No Iterations 6
smoothSolver:  Solving for By, Initial residual = 0.00780355, Final residual = 6.60182e-06, No Iterations 9
DICPCG:  Solving for pB, Initial residual = 0.0271641, Final residual = 9.51256e-06, No Iterations 37
magnetic flux divergence error = 9.77079e-10
smoothSolver:  Solving for Bx, Initial residual = 7.60792e-06, Final residual = 7.60792e-06, No Iterations 0
smoothSolver:  Solving for By, Initial residual = 9.12236e-06, Final residual = 9.12236e-06, No Iterations 0
DICPCG:  Solving for pB, Initial residual = 9.56518e-06, Final residual = 9.56518e-06, No Iterations 0
magnetic flux divergence error = 9.77079e-10
smoothSolver:  Solving for Bx, Initial residual = 7.60792e-06, Final residual = 7.60792e-06, No Iterations 0
smoothSolver:  Solving for By, Initial residual = 9.12236e-06, Final residual = 9.12236e-06, No Iterations 0
DICPCG:  Solving for pB, Initial residual = 9.56518e-06, Final residual = 9.56518e-06, No Iterations 0
magnetic flux divergence error = 9.77079e-10
Time = 0.12

Courant Number mean: 0.0251558 max: 0.0442823
smoothSolver:  Solving for Ux, Initial residual = 0.0011458, Final residual = 9.4274e-06, No Iterations 9
smoothSolver:  Solving for Uy, Initial residual = 0.0110347, Final residual = 6.54589e-06, No Iterations 15
DICPCG:  Solving for p, Initial residual = 0.00124428, Final residual = 5.76488e-05, No Iterations 78
time step continuity errors : sum local = 5.14925e-08, global = -6.99897e-10, cumulative = 2.49304e-07
DICPCG:  Solving for p, Initial residual = 0.00091693, Final residual = 4.51635e-05, No Iterations 81
time step continuity errors : sum local = 3.97828e-08, global = -2.04025e-10, cumulative = 2.49099e-07
DICPCG:  Solving for p, Initial residual = 0.000100928, Final residual = 9.24232e-07, No Iterations 83
time step continuity errors : sum local = 8.24218e-10, global = 9.27278e-12, cumulative = 2.49109e-07
smoothSolver:  Solving for Bx, Initial residual = 0.0012135, Final residual = 6.8705e-06, No Iterations 6
smoothSolver:  Solving for By, Initial residual = 0.00743345, Final residual = 6.35167e-06, No Iterations 9
DICPCG:  Solving for pB, Initial residual = 0.0254533, Final residual = 9.97194e-06, No Iterations 35
magnetic flux divergence error = 1.01606e-09
smoothSolver:  Solving for Bx, Initial residual = 6.87908e-06, Final residual = 6.87908e-06, No Iterations 0
smoothSolver:  Solving for By, Initial residual = 8.47005e-06, Final residual = 8.47005e-06, No Iterations 0
DICPCG:  Solving for pB, Initial residual = 9.99727e-06, Final residual = 9.99727e-06, No Iterations 0
magnetic flux divergence error = 1.01606e-09
smoothSolver:  Solving for Bx, Initial residual = 6.87908e-06, Final residual = 6.87908e-06, No Iterations 0
smoothSolver:  Solving for By, Initial residual = 8.47005e-06, Final residual = 8.47005e-06, No Iterations 0
DICPCG:  Solving for pB, Initial residual = 9.99727e-06, Final residual = 9.99727e-06, No Iterations 0
magnetic flux divergence error = 1.01606e-09
Time = 0.125

Courant Number mean: 0.0251556 max: 0.0442391
smoothSolver:  Solving for Ux, Initial residual = 0.000973996, Final residual = 6.54505e-06, No Iterations 9
smoothSolver:  Solving for Uy, Initial residual = 0.00793597, Final residual = 6.28048e-06, No Iterations 14
DICPCG:  Solving for p, Initial residual = 0.00100103, Final residual = 4.41371e-05, No Iterations 79
time step continuity errors : sum local = 3.93511e-08, global = 3.64246e-10, cumulative = 2.49473e-07
DICPCG:  Solving for p, Initial residual = 0.000745975, Final residual = 3.01564e-05, No Iterations 74
time step continuity errors : sum local = 2.66543e-08, global = 1.0246e-09, cumulative = 2.50498e-07
DICPCG:  Solving for p, Initial residual = 7.64792e-05, Final residual = 8.796e-07, No Iterations 68
time step continuity errors : sum local = 7.83443e-10, global = 5.83562e-11, cumulative = 2.50556e-07
smoothSolver:  Solving for Bx, Initial residual = 0.000912669, Final residual = 5.84677e-06, No Iterations 6
smoothSolver:  Solving for By, Initial residual = 0.00710387, Final residual = 6.10699e-06, No Iterations 9
DICPCG:  Solving for pB, Initial residual = 0.0239395, Final residual = 9.72178e-06, No Iterations 34
magnetic flux divergence error = 9.8797e-10
smoothSolver:  Solving for Bx, Initial residual = 5.86957e-06, Final residual = 5.86957e-06, No Iterations 0
smoothSolver:  Solving for By, Initial residual = 7.87153e-06, Final residual = 7.87153e-06, No Iterations 0
DICPCG:  Solving for pB, Initial residual = 9.72264e-06, Final residual = 9.72264e-06, No Iterations 0
magnetic flux divergence error = 9.8797e-10
smoothSolver:  Solving for Bx, Initial residual = 5.86957e-06, Final residual = 5.86957e-06, No Iterations 0
smoothSolver:  Solving for By, Initial residual = 7.87153e-06, Final residual = 7.87153e-06, No Iterations 0
DICPCG:  Solving for pB, Initial residual = 9.72264e-06, Final residual = 9.72264e-06, No Iterations 0
magnetic flux divergence error = 9.8797e-10
Time = 0.13

Courant Number mean: 0.0251551 max: 0.0441994
smoothSolver:  Solving for Ux, Initial residual = 0.00103333, Final residual = 6.12381e-06, No Iterations 10
smoothSolver:  Solving for Uy, Initial residual = 0.00540443, Final residual = 8.1027e-06, No Iterations 12
DICPCG:  Solving for p, Initial residual = 0.000760509, Final residual = 3.22735e-05, No Iterations 79
time step continuity errors : sum local = 2.87429e-08, global = 2.95405e-10, cumulative = 2.50851e-07
DICPCG:  Solving for p, Initial residual = 0.000597315, Final residual = 2.76162e-05, No Iterations 79
time step continuity errors : sum local = 2.4504e-08, global = -3.07637e-10, cumulative = 2.50544e-07
DICPCG:  Solving for p, Initial residual = 7.68585e-05, Final residual = 9.58053e-07, No Iterations 34
time step continuity errors : sum local = 8.52896e-10, global = -1.82691e-10, cumulative = 2.50361e-07
smoothSolver:  Solving for Bx, Initial residual = 0.000628027, Final residual = 4.78927e-06, No Iterations 6
smoothSolver:  Solving for By, Initial residual = 0.0068032, Final residual = 5.86889e-06, No Iterations 9
DICPCG:  Solving for pB, Initial residual = 0.0226199, Final residual = 9.29791e-06, No Iterations 34
magnetic flux divergence error = 9.47689e-10
smoothSolver:  Solving for Bx, Initial residual = 4.8153e-06, Final residual = 4.8153e-06, No Iterations 0
smoothSolver:  Solving for By, Initial residual = 7.32497e-06, Final residual = 7.32497e-06, No Iterations 0
DICPCG:  Solving for pB, Initial residual = 9.26976e-06, Final residual = 9.26976e-06, No Iterations 0
magnetic flux divergence error = 9.47689e-10
smoothSolver:  Solving for Bx, Initial residual = 4.8153e-06, Final residual = 4.8153e-06, No Iterations 0
smoothSolver:  Solving for By, Initial residual = 7.32497e-06, Final residual = 7.32497e-06, No Iterations 0
DICPCG:  Solving for pB, Initial residual = 9.26976e-06, Final residual = 9.26976e-06, No Iterations 0
magnetic flux divergence error = 9.47689e-10
Time = 0.135

Courant Number mean: 0.0251545 max: 0.0441624
smoothSolver:  Solving for Ux, Initial residual = 0.00103246, Final residual = 7.29766e-06, No Iterations 10
smoothSolver:  Solving for Uy, Initial residual = 0.00385899, Final residual = 7.95215e-06, No Iterations 12
DICPCG:  Solving for p, Initial residual = 0.000576377, Final residual = 2.77433e-05, No Iterations 69
time step continuity errors : sum local = 2.46981e-08, global = -4.09582e-09, cumulative = 2.46265e-07
DICPCG:  Solving for p, Initial residual = 0.000460811, Final residual = 2.30353e-05, No Iterations 45
time step continuity errors : sum local = 2.05117e-08, global = -1.15517e-09, cumulative = 2.4511e-07
DICPCG:  Solving for p, Initial residual = 5.92036e-05, Final residual = 6.36881e-07, No Iterations 82
time step continuity errors : sum local = 5.67179e-10, global = -8.66171e-12, cumulative = 2.45101e-07
smoothSolver:  Solving for Bx, Initial residual = 0.000425884, Final residual = 7.85353e-06, No Iterations 5
smoothSolver:  Solving for By, Initial residual = 0.00652692, Final residual = 5.64054e-06, No Iterations 9
DICPCG:  Solving for pB, Initial residual = 0.0213691, Final residual = 9.61017e-06, No Iterations 34
magnetic flux divergence error = 9.87865e-10
smoothSolver:  Solving for Bx, Initial residual = 7.85702e-06, Final residual = 7.85702e-06, No Iterations 0
smoothSolver:  Solving for By, Initial residual = 6.82912e-06, Final residual = 6.82912e-06, No Iterations 0
DICPCG:  Solving for pB, Initial residual = 9.55818e-06, Final residual = 9.55818e-06, No Iterations 0
magnetic flux divergence error = 9.87865e-10
smoothSolver:  Solving for Bx, Initial residual = 7.85702e-06, Final residual = 7.85702e-06, No Iterations 0
smoothSolver:  Solving for By, Initial residual = 6.82912e-06, Final residual = 6.82912e-06, No Iterations 0
DICPCG:  Solving for pB, Initial residual = 9.55818e-06, Final residual = 9.55818e-06, No Iterations 0
magnetic flux divergence error = 9.87865e-10
Time = 0.14

Courant Number mean: 0.0251537 max: 0.0441278
smoothSolver:  Solving for Ux, Initial residual = 0.00100711, Final residual = 7.25277e-06, No Iterations 10
smoothSolver:  Solving for Uy, Initial residual = 0.00302724, Final residual = 8.55048e-06, No Iterations 11
DICPCG:  Solving for p, Initial residual = 0.000467625, Final residual = 2.05582e-05, No Iterations 79
time step continuity errors : sum local = 1.83084e-08, global = 5.80032e-12, cumulative = 2.45107e-07
DICPCG:  Solving for p, Initial residual = 0.000372815, Final residual = 1.66657e-05, No Iterations 79
time step continuity errors : sum local = 1.48687e-08, global = -1.86407e-11, cumulative = 2.45089e-07
DICPCG:  Solving for p, Initial residual = 5.16637e-05, Final residual = 9.89794e-07, No Iterations 20
time step continuity errors : sum local = 8.81656e-10, global = 5.24993e-11, cumulative = 2.45141e-07
smoothSolver:  Solving for Bx, Initial residual = 0.000319265, Final residual = 5.10218e-06, No Iterations 5
smoothSolver:  Solving for By, Initial residual = 0.00627285, Final residual = 5.42363e-06, No Iterations 9
DICPCG:  Solving for pB, Initial residual = 0.0202398, Final residual = 9.92567e-06, No Iterations 36
magnetic flux divergence error = 1.03388e-09
smoothSolver:  Solving for Bx, Initial residual = 5.10403e-06, Final residual = 5.10403e-06, No Iterations 0
smoothSolver:  Solving for By, Initial residual = 6.4055e-06, Final residual = 6.4055e-06, No Iterations 0
DICPCG:  Solving for pB, Initial residual = 9.84917e-06, Final residual = 9.84917e-06, No Iterations 0
magnetic flux divergence error = 1.03388e-09
smoothSolver:  Solving for Bx, Initial residual = 5.10403e-06, Final residual = 5.10403e-06, No Iterations 0
smoothSolver:  Solving for By, Initial residual = 6.4055e-06, Final residual = 6.4055e-06, No Iterations 0
DICPCG:  Solving for pB, Initial residual = 9.84917e-06, Final residual = 9.84917e-06, No Iterations 0
magnetic flux divergence error = 1.03388e-09
Time = 0.145

Courant Number mean: 0.0251529 max: 0.0440956
smoothSolver:  Solving for Ux, Initial residual = 0.0009034, Final residual = 6.39485e-06, No Iterations 10
smoothSolver:  Solving for Uy, Initial residual = 0.00299242, Final residual = 9.88994e-06, No Iterations 11
DICPCG:  Solving for p, Initial residual = 0.000418772, Final residual = 1.92951e-05, No Iterations 79
time step continuity errors : sum local = 1.719e-08, global = 3.90744e-11, cumulative = 2.4518e-07
DICPCG:  Solving for p, Initial residual = 0.000318887, Final residual = 1.42489e-05, No Iterations 80
time step continuity errors : sum local = 1.27533e-08, global = -1.48859e-10, cumulative = 2.45031e-07
DICPCG:  Solving for p, Initial residual = 4.22262e-05, Final residual = 6.99286e-07, No Iterations 82
time step continuity errors : sum local = 6.23332e-10, global = 5.36687e-12, cumulative = 2.45037e-07
smoothSolver:  Solving for Bx, Initial residual = 0.000314793, Final residual = 8.99714e-06, No Iterations 4
smoothSolver:  Solving for By, Initial residual = 0.00603604, Final residual = 5.21964e-06, No Iterations 9
DICPCG:  Solving for pB, Initial residual = 0.0191017, Final residual = 9.73827e-06, No Iterations 58
magnetic flux divergence error = 1.03154e-09
smoothSolver:  Solving for Bx, Initial residual = 8.99063e-06, Final residual = 8.99063e-06, No Iterations 0
smoothSolver:  Solving for By, Initial residual = 6.00643e-06, Final residual = 6.00643e-06, No Iterations 0
DICPCG:  Solving for pB, Initial residual = 9.6513e-06, Final residual = 9.6513e-06, No Iterations 0
magnetic flux divergence error = 1.03154e-09
smoothSolver:  Solving for Bx, Initial residual = 8.99063e-06, Final residual = 8.99063e-06, No Iterations 0
smoothSolver:  Solving for By, Initial residual = 6.00643e-06, Final residual = 6.00643e-06, No Iterations 0
DICPCG:  Solving for pB, Initial residual = 9.6513e-06, Final residual = 9.6513e-06, No Iterations 0
magnetic flux divergence error = 1.03154e-09
Time = 0.15

Courant Number mean: 0.025152 max: 0.044066
smoothSolver:  Solving for Ux, Initial residual = 0.000727625, Final residual = 8.12321e-06, No Iterations 9
smoothSolver:  Solving for Uy, Initial residual = 0.00309538, Final residual = 7.19681e-06, No Iterations 12
DICPCG:  Solving for p, Initial residual = 0.000409979, Final residual = 1.83656e-05, No Iterations 81
time step continuity errors : sum local = 1.63736e-08, global = 1.37678e-10, cumulative = 2.45174e-07
DICPCG:  Solving for p, Initial residual = 0.000307429, Final residual = 8.95221e-06, No Iterations 82
time step continuity errors : sum local = 8.02163e-09, global = 1.54664e-11, cumulative = 2.4519e-07
DICPCG:  Solving for p, Initial residual = 3.47507e-05, Final residual = 7.6479e-07, No Iterations 82
time step continuity errors : sum local = 6.82237e-10, global = 6.41083e-12, cumulative = 2.45196e-07
smoothSolver:  Solving for Bx, Initial residual = 0.000326446, Final residual = 8.86286e-06, No Iterations 4
smoothSolver:  Solving for By, Initial residual = 0.00581185, Final residual = 5.02923e-06, No Iterations 9
DICPCG:  Solving for pB, Initial residual = 0.0181135, Final residual = 9.73205e-06, No Iterations 36
magnetic flux divergence error = 1.04966e-09
smoothSolver:  Solving for Bx, Initial residual = 8.85605e-06, Final residual = 8.85605e-06, No Iterations 0
smoothSolver:  Solving for By, Initial residual = 5.67172e-06, Final residual = 5.67172e-06, No Iterations 0
DICPCG:  Solving for pB, Initial residual = 9.64482e-06, Final residual = 9.64482e-06, No Iterations 0
magnetic flux divergence error = 1.04966e-09
smoothSolver:  Solving for Bx, Initial residual = 8.85605e-06, Final residual = 8.85605e-06, No Iterations 0
smoothSolver:  Solving for By, Initial residual = 5.67172e-06, Final residual = 5.67172e-06, No Iterations 0
DICPCG:  Solving for pB, Initial residual = 9.64482e-06, Final residual = 9.64482e-06, No Iterations 0
magnetic flux divergence error = 1.04966e-09
Time = 0.155

Courant Number mean: 0.0251512 max: 0.0440394
smoothSolver:  Solving for Ux, Initial residual = 0.000534509, Final residual = 9.21348e-06, No Iterations 8
smoothSolver:  Solving for Uy, Initial residual = 0.00273367, Final residual = 8.93379e-06, No Iterations 11
DICPCG:  Solving for p, Initial residual = 0.00040516, Final residual = 1.28206e-05, No Iterations 79
time step continuity errors : sum local = 1.14386e-08, global = 5.58769e-12, cumulative = 2.45202e-07
DICPCG:  Solving for p, Initial residual = 0.000299786, Final residual = 1.17361e-05, No Iterations 79
time step continuity errors : sum local = 1.0519e-08, global = -4.11302e-11, cumulative = 2.45161e-07
DICPCG:  Solving for p, Initial residual = 3.94554e-05, Final residual = 7.91173e-07, No Iterations 82
time step continuity errors : sum local = 7.0626e-10, global = 9.0755e-12, cumulative = 2.4517e-07
smoothSolver:  Solving for Bx, Initial residual = 0.000310954, Final residual = 8.50472e-06, No Iterations 4
smoothSolver:  Solving for By, Initial residual = 0.00559915, Final residual = 4.85251e-06, No Iterations 9
DICPCG:  Solving for pB, Initial residual = 0.0171936, Final residual = 9.73206e-06, No Iterations 58
magnetic flux divergence error = 1.06887e-09
smoothSolver:  Solving for Bx, Initial residual = 8.49809e-06, Final residual = 8.49809e-06, No Iterations 0
smoothSolver:  Solving for By, Initial residual = 5.38547e-06, Final residual = 5.38547e-06, No Iterations 0
DICPCG:  Solving for pB, Initial residual = 9.64436e-06, Final residual = 9.64436e-06, No Iterations 0
magnetic flux divergence error = 1.06887e-09
smoothSolver:  Solving for Bx, Initial residual = 8.49809e-06, Final residual = 8.49809e-06, No Iterations 0
smoothSolver:  Solving for By, Initial residual = 5.38547e-06, Final residual = 5.38547e-06, No Iterations 0
DICPCG:  Solving for pB, Initial residual = 9.64436e-06, Final residual = 9.64436e-06, No Iterations 0
magnetic flux divergence error = 1.06887e-09
Time = 0.16

Courant Number mean: 0.0251506 max: 0.0440155
smoothSolver:  Solving for Ux, Initial residual = 0.000362618, Final residual = 9.23345e-06, No Iterations 7
smoothSolver:  Solving for Uy, Initial residual = 0.00245784, Final residual = 8.03571e-06, No Iterations 11
DICPCG:  Solving for p, Initial residual = 0.000379275, Final residual = 1.31108e-05, No Iterations 81
time step continuity errors : sum local = 1.17053e-08, global = 1.05828e-10, cumulative = 2.45276e-07
DICPCG:  Solving for p, Initial residual = 0.000282369, Final residual = 1.15697e-05, No Iterations 81
time step continuity errors : sum local = 1.03672e-08, global = -8.85923e-11, cumulative = 2.45187e-07
DICPCG:  Solving for p, Initial residual = 3.521e-05, Final residual = 9.07008e-07, No Iterations 72
time step continuity errors : sum local = 8.10122e-10, global = 1.71672e-10, cumulative = 2.45359e-07
smoothSolver:  Solving for Bx, Initial residual = 0.000271073, Final residual = 7.60775e-06, No Iterations 4
smoothSolver:  Solving for By, Initial residual = 0.00539835, Final residual = 4.68919e-06, No Iterations 9
DICPCG:  Solving for pB, Initial residual = 0.0163403, Final residual = 9.76961e-06, No Iterations 36
magnetic flux divergence error = 1.09306e-09
smoothSolver:  Solving for Bx, Initial residual = 7.60117e-06, Final residual = 7.60117e-06, No Iterations 0
smoothSolver:  Solving for By, Initial residual = 5.13369e-06, Final residual = 5.13369e-06, No Iterations 0
DICPCG:  Solving for pB, Initial residual = 9.67841e-06, Final residual = 9.67841e-06, No Iterations 0
magnetic flux divergence error = 1.09306e-09
smoothSolver:  Solving for Bx, Initial residual = 7.60117e-06, Final residual = 7.60117e-06, No Iterations 0
smoothSolver:  Solving for By, Initial residual = 5.13369e-06, Final residual = 5.13369e-06, No Iterations 0
DICPCG:  Solving for pB, Initial residual = 9.67841e-06, Final residual = 9.67841e-06, No Iterations 0
magnetic flux divergence error = 1.09306e-09
Time = 0.165

Courant Number mean: 0.0251501 max: 0.0439943
smoothSolver:  Solving for Ux, Initial residual = 0.000233317, Final residual = 8.31228e-06, No Iterations 6
smoothSolver:  Solving for Uy, Initial residual = 0.00199475, Final residual = 6.37575e-06, No Iterations 11
DICPCG:  Solving for p, Initial residual = 0.000329128, Final residual = 1.12544e-05, No Iterations 79
time step continuity errors : sum local = 1.00535e-08, global = 4.06557e-11, cumulative = 2.45399e-07
DICPCG:  Solving for p, Initial residual = 0.000246312, Final residual = 1.12017e-05, No Iterations 80
time step continuity errors : sum local = 1.00312e-08, global = -1.17734e-10, cumulative = 2.45282e-07
DICPCG:  Solving for p, Initial residual = 3.00952e-05, Final residual = 9.75688e-07, No Iterations 19
time step continuity errors : sum local = 8.71824e-10, global = 8.47238e-11, cumulative = 2.45366e-07
smoothSolver:  Solving for Bx, Initial residual = 0.000217204, Final residual = 6.35417e-06, No Iterations 4
smoothSolver:  Solving for By, Initial residual = 0.00520981, Final residual = 9.91418e-06, No Iterations 8
DICPCG:  Solving for pB, Initial residual = 0.0155004, Final residual = 9.32025e-06, No Iterations 58
magnetic flux divergence error = 1.06354e-09
smoothSolver:  Solving for Bx, Initial residual = 6.34711e-06, Final residual = 6.34711e-06, No Iterations 0
smoothSolver:  Solving for By, Initial residual = 9.90266e-06, Final residual = 9.90266e-06, No Iterations 0
DICPCG:  Solving for pB, Initial residual = 9.22542e-06, Final residual = 9.22542e-06, No Iterations 0
magnetic flux divergence error = 1.06354e-09
smoothSolver:  Solving for Bx, Initial residual = 6.34711e-06, Final residual = 6.34711e-06, No Iterations 0
smoothSolver:  Solving for By, Initial residual = 9.90266e-06, Final residual = 9.90266e-06, No Iterations 0
DICPCG:  Solving for pB, Initial residual = 9.22542e-06, Final residual = 9.22542e-06, No Iterations 0
magnetic flux divergence error = 1.06354e-09
Time = 0.17

Courant Number mean: 0.0251497 max: 0.0439756
smoothSolver:  Solving for Ux, Initial residual = 0.00020159, Final residual = 6.67845e-06, No Iterations 6
smoothSolver:  Solving for Uy, Initial residual = 0.00180161, Final residual = 6.56713e-06, No Iterations 11
DICPCG:  Solving for p, Initial residual = 0.000283118, Final residual = 1.01306e-05, No Iterations 81
time step continuity errors : sum local = 9.05308e-09, global = 6.56438e-11, cumulative = 2.45432e-07
DICPCG:  Solving for p, Initial residual = 0.00021436, Final residual = 9.03617e-06, No Iterations 81
time step continuity errors : sum local = 8.08701e-09, global = -5.87401e-11, cumulative = 2.45373e-07
DICPCG:  Solving for p, Initial residual = 2.85038e-05, Final residual = 9.18412e-07, No Iterations 16
time step continuity errors : sum local = 8.2086e-10, global = 4.63239e-11, cumulative = 2.4542e-07
smoothSolver:  Solving for Bx, Initial residual = 0.000160802, Final residual = 5.00745e-06, No Iterations 4
smoothSolver:  Solving for By, Initial residual = 0.00503336, Final residual = 9.60689e-06, No Iterations 8
DICPCG:  Solving for pB, Initial residual = 0.0147025, Final residual = 9.88212e-06, No Iterations 36
magnetic flux divergence error = 1.1509e-09
smoothSolver:  Solving for Bx, Initial residual = 4.99866e-06, Final residual = 4.99866e-06, No Iterations 0
smoothSolver:  Solving for By, Initial residual = 9.61099e-06, Final residual = 9.61099e-06, No Iterations 0
DICPCG:  Solving for pB, Initial residual = 9.78303e-06, Final residual = 9.78303e-06, No Iterations 0
magnetic flux divergence error = 1.1509e-09
smoothSolver:  Solving for Bx, Initial residual = 4.99866e-06, Final residual = 4.99866e-06, No Iterations 0
smoothSolver:  Solving for By, Initial residual = 9.61099e-06, Final residual = 9.61099e-06, No Iterations 0
DICPCG:  Solving for pB, Initial residual = 9.78303e-06, Final residual = 9.78303e-06, No Iterations 0
magnetic flux divergence error = 1.1509e-09
Time = 0.175

Courant Number mean: 0.0251494 max: 0.0439592
smoothSolver:  Solving for Ux, Initial residual = 0.000194881, Final residual = 8.40118e-06, No Iterations 6
smoothSolver:  Solving for Uy, Initial residual = 0.00145135, Final residual = 8.15187e-06, No Iterations 10
DICPCG:  Solving for p, Initial residual = 0.000229076, Final residual = 8.46729e-06, No Iterations 79
time step continuity errors : sum local = 7.56838e-09, global = 2.34278e-11, cumulative = 2.45443e-07
DICPCG:  Solving for p, Initial residual = 0.00018049, Final residual = 7.99576e-06, No Iterations 80
time step continuity errors : sum local = 7.15204e-09, global = -6.90312e-11, cumulative = 2.45374e-07
DICPCG:  Solving for p, Initial residual = 2.23927e-05, Final residual = 8.73226e-07, No Iterations 14
time step continuity errors : sum local = 7.80578e-10, global = 4.09499e-11, cumulative = 2.45415e-07
smoothSolver:  Solving for Bx, Initial residual = 0.000110634, Final residual = 8.67383e-06, No Iterations 3
smoothSolver:  Solving for By, Initial residual = 0.0048685, Final residual = 9.32097e-06, No Iterations 8
DICPCG:  Solving for pB, Initial residual = 0.0138506, Final residual = 8.87494e-06, No Iterations 58
magnetic flux divergence error = 1.05443e-09
smoothSolver:  Solving for Bx, Initial residual = 8.65922e-06, Final residual = 8.65922e-06, No Iterations 0
smoothSolver:  Solving for By, Initial residual = 9.33714e-06, Final residual = 9.33714e-06, No Iterations 0
DICPCG:  Solving for pB, Initial residual = 8.78863e-06, Final residual = 8.78863e-06, No Iterations 0
magnetic flux divergence error = 1.05443e-09
smoothSolver:  Solving for Bx, Initial residual = 8.65922e-06, Final residual = 8.65922e-06, No Iterations 0
smoothSolver:  Solving for By, Initial residual = 9.33714e-06, Final residual = 9.33714e-06, No Iterations 0
DICPCG:  Solving for pB, Initial residual = 8.78863e-06, Final residual = 8.78863e-06, No Iterations 0
magnetic flux divergence error = 1.05443e-09
Time = 0.18

Courant Number mean: 0.0251492 max: 0.0439446
smoothSolver:  Solving for Ux, Initial residual = 0.000180014, Final residual = 8.93989e-06, No Iterations 6
smoothSolver:  Solving for Uy, Initial residual = 0.00130798, Final residual = 8.89539e-06, No Iterations 10
DICPCG:  Solving for p, Initial residual = 0.000193061, Final residual = 9.49461e-06, No Iterations 56
time step continuity errors : sum local = 8.48751e-09, global = -4.63211e-12, cumulative = 2.4541e-07
DICPCG:  Solving for p, Initial residual = 0.000156718, Final residual = 7.6164e-06, No Iterations 56
time step continuity errors : sum local = 6.80859e-09, global = -7.92539e-10, cumulative = 2.44618e-07
DICPCG:  Solving for p, Initial residual = 2.38515e-05, Final residual = 7.35685e-07, No Iterations 59
time step continuity errors : sum local = 6.57655e-10, global = -1.55877e-10, cumulative = 2.44462e-07
smoothSolver:  Solving for Bx, Initial residual = 7.52254e-05, Final residual = 6.63128e-06, No Iterations 3
smoothSolver:  Solving for By, Initial residual = 0.004715, Final residual = 9.05336e-06, No Iterations 8
DICPCG:  Solving for pB, Initial residual = 0.0131683, Final residual = 9.77772e-06, No Iterations 34
magnetic flux divergence error = 1.18462e-09
smoothSolver:  Solving for Bx, Initial residual = 6.61212e-06, Final residual = 6.61212e-06, No Iterations 0
smoothSolver:  Solving for By, Initial residual = 9.07938e-06, Final residual = 9.07938e-06, No Iterations 0
DICPCG:  Solving for pB, Initial residual = 9.68354e-06, Final residual = 9.68354e-06, No Iterations 0
magnetic flux divergence error = 1.18462e-09
smoothSolver:  Solving for Bx, Initial residual = 6.61212e-06, Final residual = 6.61212e-06, No Iterations 0
smoothSolver:  Solving for By, Initial residual = 9.07938e-06, Final residual = 9.07938e-06, No Iterations 0
DICPCG:  Solving for pB, Initial residual = 9.68354e-06, Final residual = 9.68354e-06, No Iterations 0
magnetic flux divergence error = 1.18462e-09
Time = 0.185

Courant Number mean: 0.025149 max: 0.0439321
smoothSolver:  Solving for Ux, Initial residual = 0.000162738, Final residual = 8.46495e-06, No Iterations 6
smoothSolver:  Solving for Uy, Initial residual = 0.00103858, Final residual = 6.46551e-06, No Iterations 10
DICPCG:  Solving for p, Initial residual = 0.00017197, Final residual = 6.09075e-06, No Iterations 79
time step continuity errors : sum local = 5.44489e-09, global = 2.23323e-11, cumulative = 2.44484e-07
DICPCG:  Solving for p, Initial residual = 0.000138391, Final residual = 4.84404e-06, No Iterations 79
time step continuity errors : sum local = 4.32821e-09, global = -1.30196e-11, cumulative = 2.44471e-07
DICPCG:  Solving for p, Initial residual = 1.78511e-05, Final residual = 9.54302e-07, No Iterations 12
time step continuity errors : sum local = 8.53044e-10, global = -4.84677e-11, cumulative = 2.44423e-07
smoothSolver:  Solving for Bx, Initial residual = 6.05588e-05, Final residual = 4.83918e-06, No Iterations 3
smoothSolver:  Solving for By, Initial residual = 0.00457188, Final residual = 8.80178e-06, No Iterations 8
DICPCG:  Solving for pB, Initial residual = 0.01255, Final residual = 9.63953e-06, No Iterations 57
magnetic flux divergence error = 1.19067e-09
smoothSolver:  Solving for Bx, Initial residual = 4.82333e-06, Final residual = 4.82333e-06, No Iterations 0
smoothSolver:  Solving for By, Initial residual = 8.83536e-06, Final residual = 8.83536e-06, No Iterations 0
DICPCG:  Solving for pB, Initial residual = 9.54782e-06, Final residual = 9.54782e-06, No Iterations 0
magnetic flux divergence error = 1.19067e-09
smoothSolver:  Solving for Bx, Initial residual = 4.82333e-06, Final residual = 4.82333e-06, No Iterations 0
smoothSolver:  Solving for By, Initial residual = 8.83536e-06, Final residual = 8.83536e-06, No Iterations 0
DICPCG:  Solving for pB, Initial residual = 9.54782e-06, Final residual = 9.54782e-06, No Iterations 0
magnetic flux divergence error = 1.19067e-09
Time = 0.19

Courant Number mean: 0.0251489 max: 0.0439212
smoothSolver:  Solving for Ux, Initial residual = 0.000144662, Final residual = 7.26468e-06, No Iterations 6
smoothSolver:  Solving for Uy, Initial residual = 0.00100824, Final residual = 6.62904e-06, No Iterations 10
DICPCG:  Solving for p, Initial residual = 0.000160027, Final residual = 6.34117e-06, No Iterations 79
time step continuity errors : sum local = 5.6683e-09, global = 1.97537e-11, cumulative = 2.44442e-07
DICPCG:  Solving for p, Initial residual = 0.000126194, Final residual = 4.61405e-06, No Iterations 79
time step continuity errors : sum local = 4.12248e-09, global = -6.87831e-12, cumulative = 2.44436e-07
DICPCG:  Solving for p, Initial residual = 1.70667e-05, Final residual = 8.53356e-07, No Iterations 12
time step continuity errors : sum local = 7.62752e-10, global = -1.29779e-11, cumulative = 2.44423e-07
smoothSolver:  Solving for Bx, Initial residual = 6.19431e-05, Final residual = 4.47219e-06, No Iterations 3
smoothSolver:  Solving for By, Initial residual = 0.00443763, Final residual = 8.56366e-06, No Iterations 8
DICPCG:  Solving for pB, Initial residual = 0.0119741, Final residual = 9.67324e-06, No Iterations 33
magnetic flux divergence error = 1.21776e-09
smoothSolver:  Solving for Bx, Initial residual = 4.45752e-06, Final residual = 4.45752e-06, No Iterations 0
smoothSolver:  Solving for By, Initial residual = 8.60583e-06, Final residual = 8.60583e-06, No Iterations 0
DICPCG:  Solving for pB, Initial residual = 9.5831e-06, Final residual = 9.5831e-06, No Iterations 0
magnetic flux divergence error = 1.21776e-09
smoothSolver:  Solving for Bx, Initial residual = 4.45752e-06, Final residual = 4.45752e-06, No Iterations 0
smoothSolver:  Solving for By, Initial residual = 8.60583e-06, Final residual = 8.60583e-06, No Iterations 0
DICPCG:  Solving for pB, Initial residual = 9.5831e-06, Final residual = 9.5831e-06, No Iterations 0
magnetic flux divergence error = 1.21776e-09
Time = 0.195

Courant Number mean: 0.0251488 max: 0.0439115
smoothSolver:  Solving for Ux, Initial residual = 0.000117549, Final residual = 9.27747e-06, No Iterations 5
smoothSolver:  Solving for Uy, Initial residual = 0.000947601, Final residual = 9.74308e-06, No Iterations 9
DICPCG:  Solving for p, Initial residual = 0.000151426, Final residual = 7.52046e-06, No Iterations 79
time step continuity errors : sum local = 6.72191e-09, global = 1.68505e-11, cumulative = 2.44439e-07
DICPCG:  Solving for p, Initial residual = 0.000118409, Final residual = 5.27698e-06, No Iterations 80
time step continuity errors : sum local = 4.71428e-09, global = -9.72225e-12, cumulative = 2.4443e-07
DICPCG:  Solving for p, Initial residual = 1.56591e-05, Final residual = 9.56442e-07, No Iterations 11
time step continuity errors : sum local = 8.5482e-10, global = -1.34608e-11, cumulative = 2.44416e-07
smoothSolver:  Solving for Bx, Initial residual = 6.24729e-05, Final residual = 4.40973e-06, No Iterations 3
smoothSolver:  Solving for By, Initial residual = 0.00431154, Final residual = 8.3373e-06, No Iterations 8
DICPCG:  Solving for pB, Initial residual = 0.0114477, Final residual = 9.86702e-06, No Iterations 42
magnetic flux divergence error = 1.26553e-09
smoothSolver:  Solving for Bx, Initial residual = 4.39596e-06, Final residual = 4.39596e-06, No Iterations 0
smoothSolver:  Solving for By, Initial residual = 8.38788e-06, Final residual = 8.38788e-06, No Iterations 0
DICPCG:  Solving for pB, Initial residual = 9.77671e-06, Final residual = 9.77671e-06, No Iterations 0
magnetic flux divergence error = 1.26553e-09
smoothSolver:  Solving for Bx, Initial residual = 4.39596e-06, Final residual = 4.39596e-06, No Iterations 0
smoothSolver:  Solving for By, Initial residual = 8.38788e-06, Final residual = 8.38788e-06, No Iterations 0
DICPCG:  Solving for pB, Initial residual = 9.77671e-06, Final residual = 9.77671e-06, No Iterations 0
magnetic flux divergence error = 1.26553e-09
Time = 0.2

Courant Number mean: 0.0251486 max: 0.043903
smoothSolver:  Solving for Ux, Initial residual = 8.92824e-05, Final residual = 6.76772e-06, No Iterations 5
smoothSolver:  Solving for Uy, Initial residual = 0.000946108, Final residual = 6.74928e-06, No Iterations 10
DICPCG:  Solving for p, Initial residual = 0.000148679, Final residual = 5.81163e-06, No Iterations 81
time step continuity errors : sum local = 5.19407e-09, global = 1.11015e-11, cumulative = 2.44427e-07
DICPCG:  Solving for p, Initial residual = 0.000116769, Final residual = 5.17236e-06, No Iterations 81
time step continuity errors : sum local = 4.62055e-09, global = -2.31377e-11, cumulative = 2.44404e-07
DICPCG:  Solving for p, Initial residual = 1.60475e-05, Final residual = 9.06547e-07, No Iterations 11
time step continuity errors : sum local = 8.10161e-10, global = -1.85616e-11, cumulative = 2.44386e-07
smoothSolver:  Solving for Bx, Initial residual = 5.90799e-05, Final residual = 9.8655e-06, No Iterations 2
smoothSolver:  Solving for By, Initial residual = 0.00419283, Final residual = 8.1217e-06, No Iterations 8
DICPCG:  Solving for pB, Initial residual = 0.0108491, Final residual = 9.23198e-06, No Iterations 57
magnetic flux divergence error = 1.20575e-09
smoothSolver:  Solving for Bx, Initial residual = 9.85048e-06, Final residual = 9.85048e-06, No Iterations 0
[...]
smoothSolver:  Solving for Uy, Initial residual = 3.4873e-05, Final residual = 7.77094e-06, No Iterations 3
DICPCG:  Solving for p, Initial residual = 3.28793e-06, Final residual = 7.97569e-07, No Iterations 6
time step continuity errors : sum local = 7.13145e-10, global = 2.87902e-10, cumulative = 2.10884e-07
DICPCG:  Solving for p, Initial residual = 2.65637e-06, Final residual = 9.76944e-07, No Iterations 5
time step continuity errors : sum local = 8.73533e-10, global = 3.04161e-10, cumulative = 2.11188e-07
DICPCG:  Solving for p, Initial residual = 1.62455e-06, Final residual = 9.6269e-07, No Iterations 1
time step continuity errors : sum local = 8.60787e-10, global = 3.1979e-10, cumulative = 2.11508e-07
smoothSolver:  Solving for Bx, Initial residual = 9.24345e-06, Final residual = 9.24345e-06, No Iterations 0
smoothSolver:  Solving for By, Initial residual = 5.27011e-05, Final residual = 5.08938e-06, No Iterations 3
DICPCG:  Solving for pB, Initial residual = 0.000100662, Final residual = 8.13906e-06, No Iterations 8
magnetic flux divergence error = 3.13252e-09
smoothSolver:  Solving for Bx, Initial residual = 9.24388e-06, Final residual = 9.24388e-06, No Iterations 0
smoothSolver:  Solving for By, Initial residual = 5.08884e-06, Final residual = 5.08884e-06, No Iterations 0
DICPCG:  Solving for pB, Initial residual = 8.1383e-06, Final residual = 8.1383e-06, No Iterations 0
magnetic flux divergence error = 3.13252e-09
smoothSolver:  Solving for Bx, Initial residual = 9.24388e-06, Final residual = 9.24388e-06, No Iterations 0
smoothSolver:  Solving for By, Initial residual = 5.08884e-06, Final residual = 5.08884e-06, No Iterations 0
DICPCG:  Solving for pB, Initial residual = 8.1383e-06, Final residual = 8.1383e-06, No Iterations 0
magnetic flux divergence error = 3.13252e-09
Time = 1.96

Courant Number mean: 0.0251487 max: 0.0438391
smoothSolver:  Solving for Ux, Initial residual = 8.31972e-07, Final residual = 8.31972e-07, No Iterations 0
smoothSolver:  Solving for Uy, Initial residual = 3.77377e-05, Final residual = 8.59869e-06, No Iterations 3
DICPCG:  Solving for p, Initial residual = 3.64389e-06, Final residual = 9.43549e-07, No Iterations 45
time step continuity errors : sum local = 8.43673e-10, global = -2.28652e-11, cumulative = 2.11485e-07
DICPCG:  Solving for p, Initial residual = 2.97583e-06, Final residual = 9.6095e-07, No Iterations 72
time step continuity errors : sum local = 8.59173e-10, global = 1.30752e-12, cumulative = 2.11486e-07
DICPCG:  Solving for p, Initial residual = 1.43955e-06, Final residual = 8.08713e-07, No Iterations 4
time step continuity errors : sum local = 7.23099e-10, global = 2.32002e-11, cumulative = 2.11509e-07
smoothSolver:  Solving for Bx, Initial residual = 9.20554e-06, Final residual = 9.20554e-06, No Iterations 0
smoothSolver:  Solving for By, Initial residual = 5.21143e-05, Final residual = 5.03267e-06, No Iterations 3
DICPCG:  Solving for pB, Initial residual = 0.000100939, Final residual = 6.72828e-06, No Iterations 8
magnetic flux divergence error = 2.59002e-09
smoothSolver:  Solving for Bx, Initial residual = 9.20593e-06, Final residual = 9.20593e-06, No Iterations 0
smoothSolver:  Solving for By, Initial residual = 5.03214e-06, Final residual = 5.03214e-06, No Iterations 0
DICPCG:  Solving for pB, Initial residual = 6.72765e-06, Final residual = 6.72765e-06, No Iterations 0
magnetic flux divergence error = 2.59002e-09
smoothSolver:  Solving for Bx, Initial residual = 9.20593e-06, Final residual = 9.20593e-06, No Iterations 0
smoothSolver:  Solving for By, Initial residual = 5.03214e-06, Final residual = 5.03214e-06, No Iterations 0
DICPCG:  Solving for pB, Initial residual = 6.72765e-06, Final residual = 6.72765e-06, No Iterations 0
magnetic flux divergence error = 2.59002e-09
Time = 1.965

Courant Number mean: 0.0251487 max: 0.0438391
smoothSolver:  Solving for Ux, Initial residual = 1.9083e-06, Final residual = 1.9083e-06, No Iterations 0
smoothSolver:  Solving for Uy, Initial residual = 3.9137e-05, Final residual = 9.47322e-06, No Iterations 3
DICPCG:  Solving for p, Initial residual = 3.3604e-06, Final residual = 8.19019e-07, No Iterations 30
time step continuity errors : sum local = 7.32314e-10, global = -6.77391e-11, cumulative = 2.11442e-07
DICPCG:  Solving for p, Initial residual = 2.77739e-06, Final residual = 7.72042e-07, No Iterations 5
time step continuity errors : sum local = 6.9031e-10, global = -1.41674e-10, cumulative = 2.113e-07
DICPCG:  Solving for p, Initial residual = 1.25376e-06, Final residual = 9.94784e-07, No Iterations 10
time step continuity errors : sum local = 8.89471e-10, global = -1.78626e-10, cumulative = 2.11121e-07
smoothSolver:  Solving for Bx, Initial residual = 9.21056e-06, Final residual = 9.21056e-06, No Iterations 0
smoothSolver:  Solving for By, Initial residual = 5.16502e-05, Final residual = 4.98758e-06, No Iterations 3
DICPCG:  Solving for pB, Initial residual = 9.85739e-05, Final residual = 8.03405e-06, No Iterations 8
magnetic flux divergence error = 3.09325e-09
smoothSolver:  Solving for Bx, Initial residual = 9.21098e-06, Final residual = 9.21098e-06, No Iterations 0
smoothSolver:  Solving for By, Initial residual = 4.98706e-06, Final residual = 4.98706e-06, No Iterations 0
DICPCG:  Solving for pB, Initial residual = 8.03331e-06, Final residual = 8.03331e-06, No Iterations 0
magnetic flux divergence error = 3.09325e-09
smoothSolver:  Solving for Bx, Initial residual = 9.21098e-06, Final residual = 9.21098e-06, No Iterations 0
smoothSolver:  Solving for By, Initial residual = 4.98706e-06, Final residual = 4.98706e-06, No Iterations 0
DICPCG:  Solving for pB, Initial residual = 8.03331e-06, Final residual = 8.03331e-06, No Iterations 0
magnetic flux divergence error = 3.09325e-09
Time = 1.97

Courant Number mean: 0.0251487 max: 0.0438391
smoothSolver:  Solving for Ux, Initial residual = 1.62792e-06, Final residual = 1.62792e-06, No Iterations 0
smoothSolver:  Solving for Uy, Initial residual = 3.76728e-05, Final residual = 8.76498e-06, No Iterations 3
DICPCG:  Solving for p, Initial residual = 4.07826e-06, Final residual = 9.16217e-07, No Iterations 37
time step continuity errors : sum local = 8.19224e-10, global = -6.64384e-11, cumulative = 2.11055e-07
DICPCG:  Solving for p, Initial residual = 3.32078e-06, Final residual = 7.57586e-07, No Iterations 28
time step continuity errors : sum local = 6.77393e-10, global = -1.12218e-10, cumulative = 2.10943e-07
DICPCG:  Solving for p, Initial residual = 1.14343e-06, Final residual = 8.36451e-07, No Iterations 4
time step continuity errors : sum local = 7.4791e-10, global = -1.47341e-10, cumulative = 2.10795e-07
smoothSolver:  Solving for Bx, Initial residual = 9.20776e-06, Final residual = 9.20776e-06, No Iterations 0
smoothSolver:  Solving for By, Initial residual = 5.1129e-05, Final residual = 4.93713e-06, No Iterations 3
DICPCG:  Solving for pB, Initial residual = 9.90235e-05, Final residual = 9.83468e-06, No Iterations 7
magnetic flux divergence error = 3.78721e-09
smoothSolver:  Solving for Bx, Initial residual = 9.20814e-06, Final residual = 9.20814e-06, No Iterations 0
smoothSolver:  Solving for By, Initial residual = 4.93662e-06, Final residual = 4.93662e-06, No Iterations 0
DICPCG:  Solving for pB, Initial residual = 9.83378e-06, Final residual = 9.83378e-06, No Iterations 0
magnetic flux divergence error = 3.78721e-09
smoothSolver:  Solving for Bx, Initial residual = 9.20814e-06, Final residual = 9.20814e-06, No Iterations 0
smoothSolver:  Solving for By, Initial residual = 4.93662e-06, Final residual = 4.93662e-06, No Iterations 0
DICPCG:  Solving for pB, Initial residual = 9.83378e-06, Final residual = 9.83378e-06, No Iterations 0
magnetic flux divergence error = 3.78721e-09
Time = 1.975

Courant Number mean: 0.0251487 max: 0.0438391
smoothSolver:  Solving for Ux, Initial residual = 1.11687e-06, Final residual = 1.11687e-06, No Iterations 0
smoothSolver:  Solving for Uy, Initial residual = 5.00832e-05, Final residual = 7.48642e-06, No Iterations 4
DICPCG:  Solving for p, Initial residual = 4.54821e-06, Final residual = 9.76702e-07, No Iterations 6
time step continuity errors : sum local = 8.73316e-10, global = -1.74334e-10, cumulative = 2.10621e-07
DICPCG:  Solving for p, Initial residual = 3.82648e-06, Final residual = 7.78928e-07, No Iterations 23
time step continuity errors : sum local = 6.96477e-10, global = -8.54308e-12, cumulative = 2.10612e-07
DICPCG:  Solving for p, Initial residual = 1.29784e-06, Final residual = 9.93422e-07, No Iterations 11
time step continuity errors : sum local = 8.88268e-10, global = 3.56589e-12, cumulative = 2.10616e-07
smoothSolver:  Solving for Bx, Initial residual = 9.2084e-06, Final residual = 9.2084e-06, No Iterations 0
smoothSolver:  Solving for By, Initial residual = 5.05835e-05, Final residual = 4.88435e-06, No Iterations 3
DICPCG:  Solving for pB, Initial residual = 9.763e-05, Final residual = 6.97136e-06, No Iterations 8
magnetic flux divergence error = 2.68507e-09
smoothSolver:  Solving for Bx, Initial residual = 9.20879e-06, Final residual = 9.20879e-06, No Iterations 0
smoothSolver:  Solving for By, Initial residual = 4.88386e-06, Final residual = 4.88386e-06, No Iterations 0
DICPCG:  Solving for pB, Initial residual = 6.97074e-06, Final residual = 6.97074e-06, No Iterations 0
magnetic flux divergence error = 2.68507e-09
smoothSolver:  Solving for Bx, Initial residual = 9.20879e-06, Final residual = 9.20879e-06, No Iterations 0
smoothSolver:  Solving for By, Initial residual = 4.88386e-06, Final residual = 4.88386e-06, No Iterations 0
DICPCG:  Solving for pB, Initial residual = 6.97074e-06, Final residual = 6.97074e-06, No Iterations 0
magnetic flux divergence error = 2.68507e-09
Time = 1.98

Courant Number mean: 0.0251487 max: 0.0438391
smoothSolver:  Solving for Ux, Initial residual = 1.79079e-06, Final residual = 1.79079e-06, No Iterations 0
smoothSolver:  Solving for Uy, Initial residual = 4.22389e-05, Final residual = 9.64393e-06, No Iterations 3
DICPCG:  Solving for p, Initial residual = 4.03522e-06, Final residual = 8.18587e-07, No Iterations 27
time step continuity errors : sum local = 7.31939e-10, global = 2.09508e-12, cumulative = 2.10618e-07
DICPCG:  Solving for p, Initial residual = 3.1187e-06, Final residual = 7.03426e-07, No Iterations 6
time step continuity errors : sum local = 6.28967e-10, global = 1.02883e-11, cumulative = 2.10628e-07
DICPCG:  Solving for p, Initial residual = 1.14365e-06, Final residual = 8.80129e-07, No Iterations 10
time step continuity errors : sum local = 7.86965e-10, global = -2.36926e-11, cumulative = 2.10605e-07
smoothSolver:  Solving for Bx, Initial residual = 9.21977e-06, Final residual = 9.21977e-06, No Iterations 0
smoothSolver:  Solving for By, Initial residual = 5.012e-05, Final residual = 4.83994e-06, No Iterations 3
DICPCG:  Solving for pB, Initial residual = 9.62924e-05, Final residual = 9.62083e-06, No Iterations 7
magnetic flux divergence error = 3.7062e-09
smoothSolver:  Solving for Bx, Initial residual = 9.22016e-06, Final residual = 9.22016e-06, No Iterations 0
smoothSolver:  Solving for By, Initial residual = 4.83945e-06, Final residual = 4.83945e-06, No Iterations 0
DICPCG:  Solving for pB, Initial residual = 9.61996e-06, Final residual = 9.61996e-06, No Iterations 0
magnetic flux divergence error = 3.7062e-09
smoothSolver:  Solving for Bx, Initial residual = 9.22016e-06, Final residual = 9.22016e-06, No Iterations 0
smoothSolver:  Solving for By, Initial residual = 4.83945e-06, Final residual = 4.83945e-06, No Iterations 0
DICPCG:  Solving for pB, Initial residual = 9.61996e-06, Final residual = 9.61996e-06, No Iterations 0
magnetic flux divergence error = 3.7062e-09
Time = 1.985

Courant Number mean: 0.0251487 max: 0.0438391
smoothSolver:  Solving for Ux, Initial residual = 9.60558e-07, Final residual = 9.60558e-07, No Iterations 0
smoothSolver:  Solving for Uy, Initial residual = 4.87413e-05, Final residual = 7.45359e-06, No Iterations 4
DICPCG:  Solving for p, Initial residual = 4.39643e-06, Final residual = 6.71527e-07, No Iterations 6
time step continuity errors : sum local = 6.00445e-10, global = -3.96299e-11, cumulative = 2.10565e-07
DICPCG:  Solving for p, Initial residual = 3.50909e-06, Final residual = 8.53735e-07, No Iterations 5
time step continuity errors : sum local = 7.63365e-10, global = -4.08712e-11, cumulative = 2.10524e-07
DICPCG:  Solving for p, Initial residual = 1.48892e-06, Final residual = 9.29488e-07, No Iterations 2
time step continuity errors : sum local = 8.311e-10, global = -4.06996e-11, cumulative = 2.10483e-07
smoothSolver:  Solving for Bx, Initial residual = 9.23272e-06, Final residual = 9.23272e-06, No Iterations 0
smoothSolver:  Solving for By, Initial residual = 4.96332e-05, Final residual = 4.79279e-06, No Iterations 3
DICPCG:  Solving for pB, Initial residual = 9.60647e-05, Final residual = 6.71041e-06, No Iterations 8
magnetic flux divergence error = 2.58549e-09
smoothSolver:  Solving for Bx, Initial residual = 9.23312e-06, Final residual = 9.23312e-06, No Iterations 0
smoothSolver:  Solving for By, Initial residual = 4.79232e-06, Final residual = 4.79232e-06, No Iterations 0
DICPCG:  Solving for pB, Initial residual = 6.70982e-06, Final residual = 6.70982e-06, No Iterations 0
magnetic flux divergence error = 2.58549e-09
smoothSolver:  Solving for Bx, Initial residual = 9.23312e-06, Final residual = 9.23312e-06, No Iterations 0
smoothSolver:  Solving for By, Initial residual = 4.79232e-06, Final residual = 4.79232e-06, No Iterations 0
DICPCG:  Solving for pB, Initial residual = 6.70982e-06, Final residual = 6.70982e-06, No Iterations 0
magnetic flux divergence error = 2.58549e-09
Time = 1.99

Courant Number mean: 0.0251487 max: 0.0438391
smoothSolver:  Solving for Ux, Initial residual = 6.50097e-07, Final residual = 6.50097e-07, No Iterations 0
smoothSolver:  Solving for Uy, Initial residual = 4.16501e-05, Final residual = 7.61875e-06, No Iterations 3
DICPCG:  Solving for p, Initial residual = 5.91011e-06, Final residual = 9.58264e-07, No Iterations 12
time step continuity errors : sum local = 8.5683e-10, global = 5.51557e-11, cumulative = 2.10539e-07
DICPCG:  Solving for p, Initial residual = 4.61275e-06, Final residual = 8.99354e-07, No Iterations 11
time step continuity errors : sum local = 8.04156e-10, global = 1.03163e-10, cumulative = 2.10642e-07
DICPCG:  Solving for p, Initial residual = 1.65793e-06, Final residual = 9.90335e-07, No Iterations 5
time step continuity errors : sum local = 8.85506e-10, global = 1.16616e-10, cumulative = 2.10758e-07
smoothSolver:  Solving for Bx, Initial residual = 9.24758e-06, Final residual = 9.24758e-06, No Iterations 0
smoothSolver:  Solving for By, Initial residual = 4.91076e-05, Final residual = 4.74228e-06, No Iterations 3
DICPCG:  Solving for pB, Initial residual = 9.42143e-05, Final residual = 7.36483e-06, No Iterations 8
magnetic flux divergence error = 2.83813e-09
smoothSolver:  Solving for Bx, Initial residual = 9.24798e-06, Final residual = 9.24798e-06, No Iterations 0
smoothSolver:  Solving for By, Initial residual = 4.74181e-06, Final residual = 4.74181e-06, No Iterations 0
DICPCG:  Solving for pB, Initial residual = 7.36419e-06, Final residual = 7.36419e-06, No Iterations 0
magnetic flux divergence error = 2.83813e-09
smoothSolver:  Solving for Bx, Initial residual = 9.24798e-06, Final residual = 9.24798e-06, No Iterations 0
smoothSolver:  Solving for By, Initial residual = 4.74181e-06, Final residual = 4.74181e-06, No Iterations 0
DICPCG:  Solving for pB, Initial residual = 7.36419e-06, Final residual = 7.36419e-06, No Iterations 0
magnetic flux divergence error = 2.83813e-09
Time = 1.995

Courant Number mean: 0.0251487 max: 0.0438391
smoothSolver:  Solving for Ux, Initial residual = 1.02549e-06, Final residual = 1.02549e-06, No Iterations 0
smoothSolver:  Solving for Uy, Initial residual = 5.96336e-05, Final residual = 9.34995e-06, No Iterations 4
DICPCG:  Solving for p, Initial residual = 5.01909e-06, Final residual = 8.85154e-07, No Iterations 5
time step continuity errors : sum local = 7.91458e-10, global = 1.42743e-10, cumulative = 2.10901e-07
DICPCG:  Solving for p, Initial residual = 4.06431e-06, Final residual = 5.48567e-07, No Iterations 5
time step continuity errors : sum local = 4.90499e-10, global = 1.67805e-10, cumulative = 2.11069e-07
DICPCG:  Solving for p, Initial residual = 1.13985e-06, Final residual = 8.41012e-07, No Iterations 2
time step continuity errors : sum local = 7.51988e-10, global = 1.90676e-10, cumulative = 2.1126e-07
smoothSolver:  Solving for Bx, Initial residual = 9.26109e-06, Final residual = 9.26109e-06, No Iterations 0
smoothSolver:  Solving for By, Initial residual = 4.85849e-05, Final residual = 4.69197e-06, No Iterations 3
DICPCG:  Solving for pB, Initial residual = 9.37442e-05, Final residual = 6.66587e-06, No Iterations 8
magnetic flux divergence error = 2.56923e-09
smoothSolver:  Solving for Bx, Initial residual = 9.26148e-06, Final residual = 9.26148e-06, No Iterations 0
smoothSolver:  Solving for By, Initial residual = 4.69151e-06, Final residual = 4.69151e-06, No Iterations 0
DICPCG:  Solving for pB, Initial residual = 6.6653e-06, Final residual = 6.6653e-06, No Iterations 0
magnetic flux divergence error = 2.56923e-09
smoothSolver:  Solving for Bx, Initial residual = 9.26148e-06, Final residual = 9.26148e-06, No Iterations 0
smoothSolver:  Solving for By, Initial residual = 4.69151e-06, Final residual = 4.69151e-06, No Iterations 0
DICPCG:  Solving for pB, Initial residual = 6.6653e-06, Final residual = 6.6653e-06, No Iterations 0
magnetic flux divergence error = 2.56923e-09
Time = 2

Courant Number mean: 0.0251487 max: 0.0438391
smoothSolver:  Solving for Ux, Initial residual = 9.43419e-07, Final residual = 9.43419e-07, No Iterations 0
smoothSolver:  Solving for Uy, Initial residual = 3.78614e-05, Final residual = 8.82642e-06, No Iterations 3
DICPCG:  Solving for p, Initial residual = 3.85168e-06, Final residual = 9.83868e-07, No Iterations 5
time step continuity errors : sum local = 8.79723e-10, global = 2.21943e-10, cumulative = 2.11481e-07
DICPCG:  Solving for p, Initial residual = 3.32095e-06, Final residual = 9.71989e-07, No Iterations 5
time step continuity errors : sum local = 8.69102e-10, global = 2.49043e-10, cumulative = 2.11731e-07
DICPCG:  Solving for p, Initial residual = 1.73986e-06, Final residual = 7.97046e-07, No Iterations 14
time step continuity errors : sum local = 7.12676e-10, global = 1.23451e-10, cumulative = 2.11854e-07
smoothSolver:  Solving for Bx, Initial residual = 9.27369e-06, Final residual = 9.27369e-06, No Iterations 0
smoothSolver:  Solving for By, Initial residual = 4.81303e-05, Final residual = 4.64786e-06, No Iterations 3
DICPCG:  Solving for pB, Initial residual = 9.22575e-05, Final residual = 6.89676e-06, No Iterations 8
magnetic flux divergence error = 2.65868e-09
smoothSolver:  Solving for Bx, Initial residual = 9.27406e-06, Final residual = 9.27406e-06, No Iterations 0
smoothSolver:  Solving for By, Initial residual = 4.64741e-06, Final residual = 4.64741e-06, No Iterations 0
DICPCG:  Solving for pB, Initial residual = 6.89617e-06, Final residual = 6.89617e-06, No Iterations 0
magnetic flux divergence error = 2.65868e-09
smoothSolver:  Solving for Bx, Initial residual = 9.27406e-06, Final residual = 9.27406e-06, No Iterations 0
smoothSolver:  Solving for By, Initial residual = 4.64741e-06, Final residual = 4.64741e-06, No Iterations 0
DICPCG:  Solving for pB, Initial residual = 6.89617e-06, Final residual = 6.89617e-06, No Iterations 0
magnetic flux divergence error = 2.65868e-09
    functionObjects::components components(U) writing field: Ux
    functionObjects::components components(U) writing field: Uy
    functionObjects::components components(U) writing field: Uz
End

